@<TRIPOS>MOLECULE
CH4
37500 30000
SMALL
USER_CHARGES


@<TRIPOS>ATOM
1 C 95.002 71.39 10.872 C 0.0 **** 0.0
2 H 95.811 70.728 11.18 H 0.0 **** 0.0
3 H 94.97 71.443 9.784 H 0.0 **** 0.0
4 H 95.173 72.386 11.28 H 0.0 **** 0.0
5 H 94.054 71.002 11.245 H 0.0 **** 0.0
6 C 56.039 68.284 32.02 C 0.0 **** 0.0
7 H 55.528 68.953 31.328 H 0.0 **** 0.0
8 H 55.824 67.249 31.752 H 0.0 **** 0.0
9 H 55.69 68.476 33.035 H 0.0 **** 0.0
10 H 57.114 68.458 31.966 H 0.0 **** 0.0
11 C 35.236 4.25 31.586 C 0.0 **** 0.0
12 H 35.831 3.909 30.739 H 0.0 **** 0.0
13 H 35.835 4.92 32.204 H 0.0 **** 0.0
14 H 34.924 3.391 32.18 H 0.0 **** 0.0
15 H 34.356 4.78 31.222 H 0.0 **** 0.0
16 C 80.719 59.783 39.551 C 0.0 **** 0.0
17 H 80.436 59.666 38.505 H 0.0 **** 0.0
18 H 79.854 60.112 40.127 H 0.0 **** 0.0
19 H 81.514 60.525 39.631 H 0.0 **** 0.0
20 H 81.073 58.828 39.94 H 0.0 **** 0.0
21 C 13.787 62.742 6.917 C 0.0 **** 0.0
22 H 13.842 62.957 5.85 H 0.0 **** 0.0
23 H 14.135 63.608 7.481 H 0.0 **** 0.0
24 H 14.415 61.882 7.147 H 0.0 **** 0.0
25 H 12.755 62.522 7.19 H 0.0 **** 0.0
26 C 97.008 86.632 14.251 C 0.0 **** 0.0
27 H 96.845 87.185 15.177 H 0.0 **** 0.0
28 H 96.414 87.078 13.453 H 0.0 **** 0.0
29 H 96.709 85.594 14.391 H 0.0 **** 0.0
30 H 98.064 86.674 13.986 H 0.0 **** 0.0
31 C 88.401 85.489 75.71 C 0.0 **** 0.0
32 H 89.117 86.284 75.92 H 0.0 **** 0.0
33 H 87.393 85.903 75.694 H 0.0 **** 0.0
34 H 88.469 84.725 76.484 H 0.0 **** 0.0
35 H 88.627 85.045 74.74 H 0.0 **** 0.0
36 C 61.07 89.499 69.202 C 0.0 **** 0.0
37 H 61.084 89.501 70.292 H 0.0 **** 0.0
38 H 60.471 88.66 68.848 H 0.0 **** 0.0
39 H 62.089 89.403 68.826 H 0.0 **** 0.0
40 H 60.637 90.433 68.843 H 0.0 **** 0.0
41 C 87.771 15.853 87.382 C 0.0 **** 0.0
42 H 87.504 16.863 87.074 H 0.0 **** 0.0
43 H 88.815 15.831 87.695 H 0.0 **** 0.0
44 H 87.627 15.168 86.546 H 0.0 **** 0.0
45 H 87.136 15.548 88.214 H 0.0 **** 0.0
46 C 61.677 13.364 88.652 C 0.0 **** 0.0
47 H 61.793 13.708 87.624 H 0.0 **** 0.0
48 H 61.332 14.19 89.274 H 0.0 **** 0.0
49 H 62.636 13.004 89.024 H 0.0 **** 0.0
50 H 60.948 12.555 88.684 H 0.0 **** 0.0
51 C 65.904 31.855 39.542 C 0.0 **** 0.0
52 H 65.59 31.387 40.475 H 0.0 **** 0.0
53 H 66.552 32.703 39.762 H 0.0 **** 0.0
54 H 65.025 32.2 38.996 H 0.0 **** 0.0
55 H 66.446 31.129 38.936 H 0.0 **** 0.0
56 C 74.609 97.995 80.0 C 0.0 **** 0.0
57 H 73.662 97.709 79.541 H 0.0 **** 0.0
58 H 75.051 98.817 79.437 H 0.0 **** 0.0
59 H 75.287 97.142 79.993 H 0.0 **** 0.0
60 H 74.432 98.311 81.028 H 0.0 **** 0.0
61 C 46.084 34.193 94.853 C 0.0 **** 0.0
62 H 45.351 34.999 94.817 H 0.0 **** 0.0
63 H 46.704 34.226 93.958 H 0.0 **** 0.0
64 H 45.567 33.235 94.903 H 0.0 **** 0.0
65 H 46.712 34.314 95.736 H 0.0 **** 0.0
66 C 56.094 86.444 69.75 C 0.0 **** 0.0
67 H 55.995 86.323 70.829 H 0.0 **** 0.0
68 H 55.137 86.231 69.272 H 0.0 **** 0.0
69 H 56.85 85.754 69.375 H 0.0 **** 0.0
70 H 56.392 87.468 69.526 H 0.0 **** 0.0
71 C 13.276 2.422 31.909 C 0.0 **** 0.0
72 H 13.555 3.322 31.361 H 0.0 **** 0.0
73 H 12.906 1.672 31.21 H 0.0 **** 0.0
74 H 12.496 2.663 32.631 H 0.0 **** 0.0
75 H 14.148 2.031 32.433 H 0.0 **** 0.0
76 C 17.959 34.268 71.824 C 0.0 **** 0.0
77 H 17.67 35.245 72.213 H 0.0 **** 0.0
78 H 17.619 34.172 70.793 H 0.0 **** 0.0
79 H 17.503 33.486 72.432 H 0.0 **** 0.0
80 H 19.044 34.17 71.86 H 0.0 **** 0.0
81 C 60.78 65.338 63.493 C 0.0 **** 0.0
82 H 60.176 65.846 64.246 H 0.0 **** 0.0
83 H 60.14 64.701 62.883 H 0.0 **** 0.0
84 H 61.537 64.729 63.987 H 0.0 **** 0.0
85 H 61.267 66.079 62.859 H 0.0 **** 0.0
86 C 4.358 80.244 17.886 C 0.0 **** 0.0
87 H 4.177 79.185 18.068 H 0.0 **** 0.0
88 H 4.029 80.822 18.75 H 0.0 **** 0.0
89 H 3.802 80.56 17.003 H 0.0 **** 0.0
90 H 5.423 80.408 17.722 H 0.0 **** 0.0
91 C 34.802 58.017 66.838 C 0.0 **** 0.0
92 H 35.814 58.421 66.868 H 0.0 **** 0.0
93 H 34.829 56.999 66.447 H 0.0 **** 0.0
94 H 34.182 58.638 66.192 H 0.0 **** 0.0
95 H 34.384 58.008 67.844 H 0.0 **** 0.0
96 C 90.093 3.689 68.212 C 0.0 **** 0.0
97 H 89.835 3.238 67.253 H 0.0 **** 0.0
98 H 90.968 3.187 68.625 H 0.0 **** 0.0
99 H 89.254 3.584 68.9 H 0.0 **** 0.0
100 H 90.314 4.746 68.067 H 0.0 **** 0.0
101 C 52.545 48.034 90.468 C 0.0 **** 0.0
102 H 53.364 48.489 89.912 H 0.0 **** 0.0
103 H 51.595 48.332 90.025 H 0.0 **** 0.0
104 H 52.583 48.366 91.506 H 0.0 **** 0.0
105 H 52.64 46.949 90.43 H 0.0 **** 0.0
106 C 66.621 1.409 69.902 C 0.0 **** 0.0
107 H 66.265 1.797 68.947 H 0.0 **** 0.0
108 H 66.869 0.353 69.795 H 0.0 **** 0.0
109 H 65.842 1.526 70.654 H 0.0 **** 0.0
110 H 67.509 1.962 70.21 H 0.0 **** 0.0
111 C 13.19 96.389 90.427 C 0.0 **** 0.0
112 H 13.913 96.276 91.235 H 0.0 **** 0.0
113 H 12.218 96.651 90.845 H 0.0 **** 0.0
114 H 13.109 95.451 89.878 H 0.0 **** 0.0
115 H 13.52 97.179 89.752 H 0.0 **** 0.0
116 C 54.618 40.302 84.092 C 0.0 **** 0.0
117 H 55.377 41.076 83.979 H 0.0 **** 0.0
118 H 53.721 40.735 84.537 H 0.0 **** 0.0
119 H 54.999 39.512 84.739 H 0.0 **** 0.0
120 H 54.374 39.886 83.115 H 0.0 **** 0.0
121 C 6.505 75.151 69.649 C 0.0 **** 0.0
122 H 6.761 74.5 68.813 H 0.0 **** 0.0
123 H 7.341 75.19 70.348 H 0.0 **** 0.0
124 H 5.624 74.759 70.158 H 0.0 **** 0.0
125 H 6.294 76.154 69.278 H 0.0 **** 0.0
126 C 2.092 45.003 73.669 C 0.0 **** 0.0
127 H 2.938 45.129 74.345 H 0.0 **** 0.0
128 H 1.165 45.008 74.243 H 0.0 **** 0.0
129 H 2.187 44.055 73.14 H 0.0 **** 0.0
130 H 2.078 45.822 72.949 H 0.0 **** 0.0
131 C 79.654 60.104 5.223 C 0.0 **** 0.0
132 H 79.668 60.101 4.133 H 0.0 **** 0.0
133 H 79.654 61.133 5.583 H 0.0 **** 0.0
134 H 80.537 59.587 5.599 H 0.0 **** 0.0
135 H 78.757 59.595 5.576 H 0.0 **** 0.0
136 C 94.529 9.493 7.608 C 0.0 **** 0.0
137 H 93.632 9.719 7.033 H 0.0 **** 0.0
138 H 94.355 8.607 8.22 H 0.0 **** 0.0
139 H 94.771 10.338 8.252 H 0.0 **** 0.0
140 H 95.359 9.306 6.927 H 0.0 **** 0.0
141 C 92.496 21.516 69.26 C 0.0 **** 0.0
142 H 92.458 20.983 70.21 H 0.0 **** 0.0
143 H 91.482 21.748 68.933 H 0.0 **** 0.0
144 H 92.986 20.893 68.513 H 0.0 **** 0.0
145 H 93.058 22.442 69.386 H 0.0 **** 0.0
146 C 45.763 55.19 62.576 C 0.0 **** 0.0
147 H 45.726 54.119 62.774 H 0.0 **** 0.0
148 H 46.657 55.613 63.036 H 0.0 **** 0.0
149 H 44.878 55.668 62.995 H 0.0 **** 0.0
150 H 45.793 55.359 61.5 H 0.0 **** 0.0
151 C 32.528 3.495 72.171 C 0.0 **** 0.0
152 H 32.39 3.624 73.244 H 0.0 **** 0.0
153 H 31.977 4.271 71.638 H 0.0 **** 0.0
154 H 32.156 2.515 71.872 H 0.0 **** 0.0
155 H 33.588 3.571 71.929 H 0.0 **** 0.0
156 C 52.124 34.567 98.256 C 0.0 **** 0.0
157 H 51.959 34.843 97.215 H 0.0 **** 0.0
158 H 52.851 35.247 98.701 H 0.0 **** 0.0
159 H 52.502 33.546 98.306 H 0.0 **** 0.0
160 H 51.183 34.633 98.802 H 0.0 **** 0.0
161 C 84.468 64.275 34.626 C 0.0 **** 0.0
162 H 85.5 63.927 34.645 H 0.0 **** 0.0
163 H 84.143 64.394 33.592 H 0.0 **** 0.0
164 H 84.399 65.233 35.142 H 0.0 **** 0.0
165 H 83.829 63.547 35.126 H 0.0 **** 0.0
166 C 7.461 24.545 19.612 C 0.0 **** 0.0
167 H 7.439 24.474 20.7 H 0.0 **** 0.0
168 H 6.845 25.386 19.292 H 0.0 **** 0.0
169 H 7.072 23.624 19.18 H 0.0 **** 0.0
170 H 8.487 24.698 19.279 H 0.0 **** 0.0
171 C 69.561 93.599 21.573 C 0.0 **** 0.0
172 H 68.846 94.414 21.461 H 0.0 **** 0.0
173 H 69.062 92.735 22.012 H 0.0 **** 0.0
174 H 70.376 93.917 22.223 H 0.0 **** 0.0
175 H 69.96 93.329 20.595 H 0.0 **** 0.0
176 C 23.272 98.272 45.502 C 0.0 **** 0.0
177 H 22.698 97.954 46.373 H 0.0 **** 0.0
178 H 22.693 98.998 44.931 H 0.0 **** 0.0
179 H 23.488 97.407 44.875 H 0.0 **** 0.0
180 H 24.206 98.727 45.829 H 0.0 **** 0.0
181 C 8.153 87.159 15.466 C 0.0 **** 0.0
182 H 7.708 87.12 16.461 H 0.0 **** 0.0
183 H 8.043 88.164 15.058 H 0.0 **** 0.0
184 H 7.649 86.445 14.815 H 0.0 **** 0.0
185 H 9.211 86.907 15.532 H 0.0 **** 0.0
186 C 59.099 82.003 77.283 C 0.0 **** 0.0
187 H 58.165 82.516 77.051 H 0.0 **** 0.0
188 H 59.554 82.459 78.163 H 0.0 **** 0.0
189 H 59.78 82.088 76.437 H 0.0 **** 0.0
190 H 58.896 80.951 77.482 H 0.0 **** 0.0
191 C 12.872 57.269 19.503 C 0.0 **** 0.0
192 H 12.103 57.989 19.782 H 0.0 **** 0.0
193 H 12.993 57.27 18.419 H 0.0 **** 0.0
194 H 12.577 56.274 19.836 H 0.0 **** 0.0
195 H 13.816 57.545 19.974 H 0.0 **** 0.0
196 C 64.546 62.074 48.364 C 0.0 **** 0.0
197 H 64.947 61.998 47.353 H 0.0 **** 0.0
198 H 65.246 61.621 49.067 H 0.0 **** 0.0
199 H 63.59 61.551 48.415 H 0.0 **** 0.0
200 H 64.4 63.123 48.619 H 0.0 **** 0.0
201 C 83.193 14.536 10.827 C 0.0 **** 0.0
202 H 82.586 13.766 11.303 H 0.0 **** 0.0
203 H 84.244 14.365 11.06 H 0.0 **** 0.0
204 H 82.893 15.516 11.198 H 0.0 **** 0.0
205 H 83.048 14.496 9.747 H 0.0 **** 0.0
206 C 55.964 61.813 84.153 C 0.0 **** 0.0
207 H 55.87 62.022 83.087 H 0.0 **** 0.0
208 H 55.061 62.139 84.668 H 0.0 **** 0.0
209 H 56.825 62.349 84.553 H 0.0 **** 0.0
210 H 56.102 60.742 84.301 H 0.0 **** 0.0
211 C 50.792 93.482 42.887 C 0.0 **** 0.0
212 H 51.17 94.504 42.916 H 0.0 **** 0.0
213 H 49.729 93.495 42.648 H 0.0 **** 0.0
214 H 50.941 93.012 43.859 H 0.0 **** 0.0
215 H 51.329 92.917 42.125 H 0.0 **** 0.0
216 C 76.406 4.802 70.511 C 0.0 **** 0.0
217 H 75.702 4.081 70.926 H 0.0 **** 0.0
218 H 76.779 4.437 69.554 H 0.0 **** 0.0
219 H 77.24 4.934 71.201 H 0.0 **** 0.0
220 H 75.902 5.758 70.364 H 0.0 **** 0.0
221 C 12.818 36.672 42.366 C 0.0 **** 0.0
222 H 12.675 36.515 41.297 H 0.0 **** 0.0
223 H 11.95 37.189 42.776 H 0.0 **** 0.0
224 H 13.711 37.276 42.528 H 0.0 **** 0.0
225 H 12.936 35.709 42.862 H 0.0 **** 0.0
226 C 98.05 44.802 57.547 C 0.0 **** 0.0
227 H 99.0 45.115 57.979 H 0.0 **** 0.0
228 H 98.215 44.435 56.534 H 0.0 **** 0.0
229 H 97.367 45.651 57.52 H 0.0 **** 0.0
230 H 97.618 44.008 58.156 H 0.0 **** 0.0
231 C 30.916 69.948 24.137 C 0.0 **** 0.0
232 H 31.072 70.2 25.186 H 0.0 **** 0.0
233 H 31.174 70.806 23.516 H 0.0 **** 0.0
234 H 29.87 69.686 23.978 H 0.0 **** 0.0
235 H 31.548 69.101 23.869 H 0.0 **** 0.0
236 C 80.35 57.94 16.571 C 0.0 **** 0.0
237 H 81.031 58.097 17.406 H 0.0 **** 0.0
238 H 80.396 58.797 15.898 H 0.0 **** 0.0
239 H 79.333 57.827 16.947 H 0.0 **** 0.0
240 H 80.639 57.038 16.031 H 0.0 **** 0.0
241 C 22.994 43.361 43.125 C 0.0 **** 0.0
242 H 23.742 44.086 43.447 H 0.0 **** 0.0
243 H 22.241 43.245 43.906 H 0.0 **** 0.0
244 H 23.475 42.402 42.938 H 0.0 **** 0.0
245 H 22.517 43.714 42.211 H 0.0 **** 0.0
246 C 2.653 27.796 92.469 C 0.0 **** 0.0
247 H 2.057 28.663 92.754 H 0.0 **** 0.0
248 H 3.634 27.859 92.94 H 0.0 **** 0.0
249 H 2.769 27.775 91.386 H 0.0 **** 0.0
250 H 2.15 26.886 92.798 H 0.0 **** 0.0
251 C 96.234 0.84 64.361 C 0.0 **** 0.0
252 H 95.837 1.593 65.041 H 0.0 **** 0.0
253 H 95.42 0.211 64.001 H 0.0 **** 0.0
254 H 96.964 0.224 64.888 H 0.0 **** 0.0
255 H 96.716 1.331 63.516 H 0.0 **** 0.0
256 C 25.507 59.28 25.908 C 0.0 **** 0.0
257 H 26.267 58.972 26.625 H 0.0 **** 0.0
258 H 25.537 58.62 25.041 H 0.0 **** 0.0
259 H 25.7 60.305 25.592 H 0.0 **** 0.0
260 H 24.523 59.223 26.374 H 0.0 **** 0.0
261 C 66.19 48.213 76.58 C 0.0 **** 0.0
262 H 65.744 48.698 77.448 H 0.0 **** 0.0
263 H 65.591 47.347 76.3 H 0.0 **** 0.0
264 H 67.202 47.892 76.823 H 0.0 **** 0.0
265 H 66.222 48.917 75.748 H 0.0 **** 0.0
266 C 81.274 71.479 35.887 C 0.0 **** 0.0
267 H 81.418 71.836 34.867 H 0.0 **** 0.0
268 H 81.08 72.327 36.544 H 0.0 **** 0.0
269 H 82.172 70.959 36.219 H 0.0 **** 0.0
270 H 80.426 70.794 35.916 H 0.0 **** 0.0
271 C 81.961 36.577 27.123 C 0.0 **** 0.0
272 H 81.681 36.118 28.071 H 0.0 **** 0.0
273 H 81.137 36.48 26.416 H 0.0 **** 0.0
274 H 82.843 36.076 26.724 H 0.0 **** 0.0
275 H 82.183 37.632 27.282 H 0.0 **** 0.0
276 C 93.759 6.973 87.263 C 0.0 **** 0.0
277 H 93.546 6.054 86.718 H 0.0 **** 0.0
278 H 92.853 7.575 87.329 H 0.0 **** 0.0
279 H 94.532 7.535 86.739 H 0.0 **** 0.0
280 H 94.106 6.727 88.267 H 0.0 **** 0.0
281 C 1.703 3.632 95.57 C 0.0 **** 0.0
282 H 1.465 4.082 96.534 H 0.0 **** 0.0
283 H 2.186 2.668 95.729 H 0.0 **** 0.0
284 H 2.375 4.29 95.018 H 0.0 **** 0.0
285 H 0.785 3.49 94.999 H 0.0 **** 0.0
286 C 38.044 68.951 52.25 C 0.0 **** 0.0
287 H 37.999 68.891 53.337 H 0.0 **** 0.0
288 H 39.023 69.324 51.947 H 0.0 **** 0.0
289 H 37.269 69.63 51.892 H 0.0 **** 0.0
290 H 37.885 67.961 51.824 H 0.0 **** 0.0
291 C 87.323 93.464 31.903 C 0.0 **** 0.0
292 H 87.88 93.679 32.815 H 0.0 **** 0.0
293 H 87.414 92.404 31.664 H 0.0 **** 0.0
294 H 87.728 94.058 31.083 H 0.0 **** 0.0
295 H 86.273 93.715 32.051 H 0.0 **** 0.0
296 C 22.258 25.832 51.529 C 0.0 **** 0.0
297 H 22.357 25.857 52.614 H 0.0 **** 0.0
298 H 23.246 25.892 51.073 H 0.0 **** 0.0
299 H 21.654 26.678 51.2 H 0.0 **** 0.0
300 H 21.775 24.902 51.229 H 0.0 **** 0.0
301 C 90.344 32.148 20.196 C 0.0 **** 0.0
302 H 90.298 33.218 20.404 H 0.0 **** 0.0
303 H 89.552 31.638 20.745 H 0.0 **** 0.0
304 H 91.313 31.759 20.509 H 0.0 **** 0.0
305 H 90.212 31.98 19.128 H 0.0 **** 0.0
306 C 9.449 17.446 95.12 C 0.0 **** 0.0
307 H 10.21 16.706 94.875 H 0.0 **** 0.0
308 H 9.307 17.477 96.201 H 0.0 **** 0.0
309 H 8.51 17.176 94.638 H 0.0 **** 0.0
310 H 9.769 18.427 94.768 H 0.0 **** 0.0
311 C 57.814 64.744 72.091 C 0.0 **** 0.0
312 H 57.444 64.267 71.183 H 0.0 **** 0.0
313 H 58.665 65.38 71.845 H 0.0 **** 0.0
314 H 58.125 63.979 72.802 H 0.0 **** 0.0
315 H 57.022 65.35 72.531 H 0.0 **** 0.0
316 C 62.706 12.173 43.893 C 0.0 **** 0.0
317 H 63.06 13.065 43.377 H 0.0 **** 0.0
318 H 63.559 11.604 44.262 H 0.0 **** 0.0
319 H 62.13 11.558 43.201 H 0.0 **** 0.0
320 H 62.073 12.465 44.731 H 0.0 **** 0.0
321 C 12.586 95.512 96.135 C 0.0 **** 0.0
322 H 12.284 96.111 96.994 H 0.0 **** 0.0
323 H 12.304 96.028 95.216 H 0.0 **** 0.0
324 H 12.09 94.543 96.175 H 0.0 **** 0.0
325 H 13.666 95.369 96.154 H 0.0 **** 0.0
326 C 35.799 35.166 14.584 C 0.0 **** 0.0
327 H 36.702 34.576 14.738 H 0.0 **** 0.0
328 H 35.546 35.173 13.523 H 0.0 **** 0.0
329 H 35.97 36.187 14.924 H 0.0 **** 0.0
330 H 34.977 34.727 15.151 H 0.0 **** 0.0
331 C 29.269 52.096 85.976 C 0.0 **** 0.0
332 H 29.488 52.94 85.322 H 0.0 **** 0.0
333 H 28.729 51.333 85.416 H 0.0 **** 0.0
334 H 28.658 52.435 86.813 H 0.0 **** 0.0
335 H 30.203 51.678 86.354 H 0.0 **** 0.0
336 C 44.82 23.53 3.734 C 0.0 **** 0.0
337 H 43.865 23.307 3.257 H 0.0 **** 0.0
338 H 44.649 23.818 4.772 H 0.0 **** 0.0
339 H 45.308 24.348 3.205 H 0.0 **** 0.0
340 H 45.456 22.646 3.702 H 0.0 **** 0.0
341 C 84.389 58.704 57.599 C 0.0 **** 0.0
342 H 84.258 58.847 56.526 H 0.0 **** 0.0
343 H 84.196 59.644 58.117 H 0.0 **** 0.0
344 H 85.41 58.381 57.8 H 0.0 **** 0.0
345 H 83.692 57.945 57.952 H 0.0 **** 0.0
346 C 45.933 37.174 34.547 C 0.0 **** 0.0
347 H 46.782 36.701 34.053 H 0.0 **** 0.0
348 H 45.954 38.247 34.356 H 0.0 **** 0.0
349 H 45.992 36.994 35.62 H 0.0 **** 0.0
350 H 45.006 36.752 34.157 H 0.0 **** 0.0
351 C 67.585 50.581 33.384 C 0.0 **** 0.0
352 H 67.421 50.859 34.425 H 0.0 **** 0.0
353 H 67.851 51.469 32.809 H 0.0 **** 0.0
354 H 66.673 50.144 32.977 H 0.0 **** 0.0
355 H 68.394 49.854 33.326 H 0.0 **** 0.0
356 C 94.974 54.397 87.213 C 0.0 **** 0.0
357 H 94.86 55.12 86.406 H 0.0 **** 0.0
358 H 95.968 53.953 87.164 H 0.0 **** 0.0
359 H 94.221 53.615 87.11 H 0.0 **** 0.0
360 H 94.847 54.899 88.172 H 0.0 **** 0.0
361 C 19.476 80.637 21.317 C 0.0 **** 0.0
362 H 18.948 79.781 21.736 H 0.0 **** 0.0
363 H 19.146 81.547 21.817 H 0.0 **** 0.0
364 H 19.262 80.71 20.251 H 0.0 **** 0.0
365 H 20.549 80.509 21.464 H 0.0 **** 0.0
366 C 75.131 66.429 45.243 C 0.0 **** 0.0
367 H 74.969 66.206 46.298 H 0.0 **** 0.0
368 H 75.437 67.469 45.135 H 0.0 **** 0.0
369 H 74.206 66.262 44.69 H 0.0 **** 0.0
370 H 75.911 65.777 44.85 H 0.0 **** 0.0
371 C 4.528 64.599 66.855 C 0.0 **** 0.0
372 H 5.22 63.847 67.234 H 0.0 **** 0.0
373 H 4.726 65.554 67.342 H 0.0 **** 0.0
374 H 3.504 64.288 67.064 H 0.0 **** 0.0
375 H 4.662 64.705 65.778 H 0.0 **** 0.0
376 C 66.882 18.88 6.937 C 0.0 **** 0.0
377 H 66.408 17.91 6.789 H 0.0 **** 0.0
378 H 66.489 19.591 6.21 H 0.0 **** 0.0
379 H 67.959 18.781 6.803 H 0.0 **** 0.0
380 H 66.672 19.237 7.945 H 0.0 **** 0.0
381 C 56.344 44.915 40.42 C 0.0 **** 0.0
382 H 55.558 44.163 40.361 H 0.0 **** 0.0
383 H 56.194 45.659 39.637 H 0.0 **** 0.0
384 H 57.315 44.437 40.286 H 0.0 **** 0.0
385 H 56.31 45.401 41.395 H 0.0 **** 0.0
386 C 12.984 85.766 67.919 C 0.0 **** 0.0
387 H 12.356 86.038 67.071 H 0.0 **** 0.0
388 H 12.359 85.393 68.729 H 0.0 **** 0.0
389 H 13.535 86.644 68.258 H 0.0 **** 0.0
390 H 13.688 84.991 67.615 H 0.0 **** 0.0
391 C 93.243 72.482 39.451 C 0.0 **** 0.0
392 H 93.161 72.583 40.534 H 0.0 **** 0.0
393 H 92.687 71.602 39.126 H 0.0 **** 0.0
394 H 94.291 72.373 39.175 H 0.0 **** 0.0
395 H 92.83 73.37 38.972 H 0.0 **** 0.0
396 C 5.937 39.317 89.946 C 0.0 **** 0.0
397 H 4.867 39.129 90.038 H 0.0 **** 0.0
398 H 6.11 40.05 89.158 H 0.0 **** 0.0
399 H 6.449 38.388 89.697 H 0.0 **** 0.0
400 H 6.321 39.701 90.891 H 0.0 **** 0.0
401 C 64.735 34.417 7.928 C 0.0 **** 0.0
402 H 64.34 34.233 6.929 H 0.0 **** 0.0
403 H 65.0 33.468 8.394 H 0.0 **** 0.0
404 H 63.979 34.92 8.53 H 0.0 **** 0.0
405 H 65.622 35.048 7.857 H 0.0 **** 0.0
406 C 84.011 52.525 92.122 C 0.0 **** 0.0
407 H 83.268 53.13 92.641 H 0.0 **** 0.0
408 H 84.874 52.374 92.772 H 0.0 **** 0.0
409 H 84.326 53.038 91.214 H 0.0 **** 0.0
410 H 83.577 51.559 91.863 H 0.0 **** 0.0
411 C 87.258 97.449 96.95 C 0.0 **** 0.0
412 H 87.248 97.714 98.007 H 0.0 **** 0.0
413 H 88.211 96.982 96.702 H 0.0 **** 0.0
414 H 87.126 98.349 96.349 H 0.0 **** 0.0
415 H 86.446 96.752 96.743 H 0.0 **** 0.0
416 C 95.703 81.718 30.687 C 0.0 **** 0.0
417 H 95.621 81.693 31.773 H 0.0 **** 0.0
418 H 96.52 82.379 30.4 H 0.0 **** 0.0
419 H 94.77 82.087 30.261 H 0.0 **** 0.0
420 H 95.9 80.713 30.314 H 0.0 **** 0.0
421 C 32.887 14.394 98.458 C 0.0 **** 0.0
422 H 33.677 14.914 99.0 H 0.0 **** 0.0
423 H 33.047 14.509 97.386 H 0.0 **** 0.0
424 H 31.921 14.819 98.729 H 0.0 **** 0.0
425 H 32.905 13.335 98.717 H 0.0 **** 0.0
426 C 41.649 66.642 25.259 C 0.0 **** 0.0
427 H 41.243 65.979 24.495 H 0.0 **** 0.0
428 H 41.472 66.211 26.245 H 0.0 **** 0.0
429 H 41.159 67.613 25.194 H 0.0 **** 0.0
430 H 42.72 66.763 25.102 H 0.0 **** 0.0
431 C 29.466 46.093 19.287 C 0.0 **** 0.0
432 H 29.446 45.772 20.328 H 0.0 **** 0.0
433 H 30.053 47.008 19.201 H 0.0 **** 0.0
434 H 28.448 46.281 18.945 H 0.0 **** 0.0
435 H 29.918 45.313 18.675 H 0.0 **** 0.0
436 C 65.198 86.399 25.086 C 0.0 **** 0.0
437 H 65.485 85.8 24.222 H 0.0 **** 0.0
438 H 64.557 87.22 24.763 H 0.0 **** 0.0
439 H 66.093 86.802 25.561 H 0.0 **** 0.0
440 H 64.659 85.774 25.798 H 0.0 **** 0.0
441 C 59.22 10.664 29.928 C 0.0 **** 0.0
442 H 59.129 10.284 30.945 H 0.0 **** 0.0
443 H 58.455 11.422 29.754 H 0.0 **** 0.0
444 H 59.088 9.845 29.221 H 0.0 **** 0.0
445 H 60.207 11.106 29.791 H 0.0 **** 0.0
446 C 42.615 34.211 55.699 C 0.0 **** 0.0
447 H 42.509 34.638 56.696 H 0.0 **** 0.0
448 H 42.226 34.912 54.96 H 0.0 **** 0.0
449 H 42.057 33.276 55.643 H 0.0 **** 0.0
450 H 43.669 34.018 55.497 H 0.0 **** 0.0
451 C 86.614 50.284 16.838 C 0.0 **** 0.0
452 H 86.943 51.311 16.999 H 0.0 **** 0.0
453 H 86.468 49.794 17.801 H 0.0 **** 0.0
454 H 87.369 49.746 16.266 H 0.0 **** 0.0
455 H 85.674 50.288 16.286 H 0.0 **** 0.0
456 C 61.878 57.27 97.32 C 0.0 **** 0.0
457 H 62.879 57.684 97.442 H 0.0 **** 0.0
458 H 61.795 56.346 97.893 H 0.0 **** 0.0
459 H 61.697 57.061 96.266 H 0.0 **** 0.0
460 H 61.142 57.989 97.68 H 0.0 **** 0.0
461 C 25.122 9.705 81.21 C 0.0 **** 0.0
462 H 24.803 9.394 80.216 H 0.0 **** 0.0
463 H 25.421 10.753 81.184 H 0.0 **** 0.0
464 H 25.967 9.094 81.528 H 0.0 **** 0.0
465 H 24.298 9.579 81.912 H 0.0 **** 0.0
466 C 97.613 27.312 67.246 C 0.0 **** 0.0
467 H 97.632 26.312 67.68 H 0.0 **** 0.0
468 H 97.127 27.276 66.271 H 0.0 **** 0.0
469 H 98.634 27.676 67.13 H 0.0 **** 0.0
470 H 97.061 27.983 67.904 H 0.0 **** 0.0
471 C 65.265 61.018 35.482 C 0.0 **** 0.0
472 H 65.152 60.065 35.999 H 0.0 **** 0.0
473 H 64.798 60.955 34.499 H 0.0 **** 0.0
474 H 66.324 61.246 35.368 H 0.0 **** 0.0
475 H 64.784 61.805 36.063 H 0.0 **** 0.0
476 C 3.692 71.024 44.275 C 0.0 **** 0.0
477 H 2.631 70.8 44.384 H 0.0 **** 0.0
478 H 4.042 71.563 45.156 H 0.0 **** 0.0
479 H 3.844 71.64 43.388 H 0.0 **** 0.0
480 H 4.251 70.094 44.172 H 0.0 **** 0.0
481 C 86.405 11.303 93.735 C 0.0 **** 0.0
482 H 85.742 12.122 93.455 H 0.0 **** 0.0
483 H 87.254 11.699 94.293 H 0.0 **** 0.0
484 H 86.762 10.801 92.836 H 0.0 **** 0.0
485 H 85.861 10.593 94.357 H 0.0 **** 0.0
486 C 9.28 53.851 63.562 C 0.0 **** 0.0
487 H 8.382 53.27 63.772 H 0.0 **** 0.0
488 H 9.884 53.33 62.82 H 0.0 **** 0.0
489 H 9.855 53.974 64.479 H 0.0 **** 0.0
490 H 8.996 54.831 63.178 H 0.0 **** 0.0
491 C 69.709 56.923 27.043 C 0.0 **** 0.0
492 H 70.674 57.389 26.845 H 0.0 **** 0.0
493 H 68.948 57.697 27.153 H 0.0 **** 0.0
494 H 69.769 56.339 27.962 H 0.0 **** 0.0
495 H 69.444 56.269 26.213 H 0.0 **** 0.0
496 C 54.609 27.543 80.749 C 0.0 **** 0.0
497 H 55.395 27.614 79.997 H 0.0 **** 0.0
498 H 54.683 28.389 81.432 H 0.0 **** 0.0
499 H 54.723 26.614 81.307 H 0.0 **** 0.0
500 H 53.635 27.555 80.259 H 0.0 **** 0.0
501 C 50.853 33.105 38.577 C 0.0 **** 0.0
502 H 50.979 32.605 37.617 H 0.0 **** 0.0
503 H 49.812 33.031 38.891 H 0.0 **** 0.0
504 H 51.13 34.155 38.479 H 0.0 **** 0.0
505 H 51.492 32.629 39.321 H 0.0 **** 0.0
506 C 67.94 57.336 31.912 C 0.0 **** 0.0
507 H 67.499 57.183 30.927 H 0.0 **** 0.0
508 H 69.011 57.138 31.865 H 0.0 **** 0.0
509 H 67.476 56.657 32.627 H 0.0 **** 0.0
510 H 67.774 58.366 32.228 H 0.0 **** 0.0
511 C 11.071 39.434 20.534 C 0.0 **** 0.0
512 H 10.202 38.838 20.814 H 0.0 **** 0.0
513 H 11.812 39.395 21.333 H 0.0 **** 0.0
514 H 10.765 40.467 20.372 H 0.0 **** 0.0
515 H 11.504 39.035 19.617 H 0.0 **** 0.0
516 C 74.289 93.499 49.444 C 0.0 **** 0.0
517 H 74.109 93.309 48.386 H 0.0 **** 0.0
518 H 74.333 92.55 49.98 H 0.0 **** 0.0
519 H 73.479 94.107 49.847 H 0.0 **** 0.0
520 H 75.235 94.027 49.563 H 0.0 **** 0.0
521 C 17.361 0.968 37.106 C 0.0 **** 0.0
522 H 17.683 0.684 36.104 H 0.0 **** 0.0
523 H 16.314 0.698 37.241 H 0.0 **** 0.0
524 H 17.478 2.045 37.233 H 0.0 **** 0.0
525 H 17.97 0.447 37.844 H 0.0 **** 0.0
526 C 16.936 2.577 11.55 C 0.0 **** 0.0
527 H 17.387 2.667 12.538 H 0.0 **** 0.0
528 H 15.859 2.726 11.628 H 0.0 **** 0.0
529 H 17.137 1.584 11.148 H 0.0 **** 0.0
530 H 17.36 3.33 10.886 H 0.0 **** 0.0
531 C 1.391 78.049 15.246 C 0.0 **** 0.0
532 H 1.255 78.204 16.316 H 0.0 **** 0.0
533 H 2.452 77.921 15.03 H 0.0 **** 0.0
534 H 1.01 78.913 14.702 H 0.0 **** 0.0
535 H 0.847 77.156 14.937 H 0.0 **** 0.0
536 C 10.462 54.426 9.583 C 0.0 **** 0.0
537 H 10.242 54.919 8.636 H 0.0 **** 0.0
538 H 9.711 54.708 10.322 H 0.0 **** 0.0
539 H 11.448 54.734 9.932 H 0.0 **** 0.0
540 H 10.447 53.346 9.442 H 0.0 **** 0.0
541 C 81.803 47.601 47.45 C 0.0 **** 0.0
542 H 81.957 47.511 48.525 H 0.0 **** 0.0
543 H 81.448 48.605 47.216 H 0.0 **** 0.0
544 H 81.062 46.869 47.128 H 0.0 **** 0.0
545 H 82.744 47.417 46.932 H 0.0 **** 0.0
546 C 89.851 94.704 57.486 C 0.0 **** 0.0
547 H 89.909 94.711 58.574 H 0.0 **** 0.0
548 H 90.668 94.105 57.083 H 0.0 **** 0.0
549 H 89.929 95.725 57.112 H 0.0 **** 0.0
550 H 88.898 94.275 57.176 H 0.0 **** 0.0
551 C 74.277 76.54 72.835 C 0.0 **** 0.0
552 H 73.192 76.483 72.752 H 0.0 **** 0.0
553 H 74.684 77.024 71.947 H 0.0 **** 0.0
554 H 74.688 75.534 72.921 H 0.0 **** 0.0
555 H 74.544 77.119 73.719 H 0.0 **** 0.0
556 C 50.839 95.673 75.106 C 0.0 **** 0.0
557 H 49.995 95.846 74.439 H 0.0 **** 0.0
558 H 51.581 96.458 74.965 H 0.0 **** 0.0
559 H 51.286 94.704 74.881 H 0.0 **** 0.0
560 H 50.492 95.682 76.14 H 0.0 **** 0.0
561 C 5.141 63.78 28.935 C 0.0 **** 0.0
562 H 4.11 64.058 28.716 H 0.0 **** 0.0
563 H 5.167 62.767 29.337 H 0.0 **** 0.0
564 H 5.556 64.472 29.667 H 0.0 **** 0.0
565 H 5.731 63.823 28.019 H 0.0 **** 0.0
566 C 17.022 46.891 68.213 C 0.0 **** 0.0
567 H 17.03 45.833 68.472 H 0.0 **** 0.0
568 H 17.919 47.369 68.609 H 0.0 **** 0.0
569 H 16.139 47.363 68.643 H 0.0 **** 0.0
570 H 17.001 47.0 67.128 H 0.0 **** 0.0
571 C 6.655 61.234 75.821 C 0.0 **** 0.0
572 H 7.442 61.382 76.56 H 0.0 **** 0.0
573 H 5.801 60.748 76.293 H 0.0 **** 0.0
574 H 7.029 60.608 75.011 H 0.0 **** 0.0
575 H 6.347 62.2 75.42 H 0.0 **** 0.0
576 C 49.37 59.558 25.376 C 0.0 **** 0.0
577 H 50.045 60.348 25.703 H 0.0 **** 0.0
578 H 49.04 58.98 26.24 H 0.0 **** 0.0
579 H 49.89 58.902 24.677 H 0.0 **** 0.0
580 H 48.505 60.001 24.883 H 0.0 **** 0.0
581 C 55.128 71.406 0.867 C 0.0 **** 0.0
582 H 55.52 70.615 0.227 H 0.0 **** 0.0
583 H 54.949 72.3 0.27 H 0.0 **** 0.0
584 H 55.851 71.63 1.651 H 0.0 **** 0.0
585 H 54.193 71.077 1.319 H 0.0 **** 0.0
586 C 25.528 93.67 82.034 C 0.0 **** 0.0
587 H 26.329 93.374 82.712 H 0.0 **** 0.0
588 H 25.957 94.05 81.108 H 0.0 **** 0.0
589 H 24.925 94.448 82.503 H 0.0 **** 0.0
590 H 24.9 92.806 81.817 H 0.0 **** 0.0
591 C 19.032 60.402 93.432 C 0.0 **** 0.0
592 H 18.216 60.613 94.124 H 0.0 **** 0.0
593 H 19.075 59.331 93.237 H 0.0 **** 0.0
594 H 19.974 60.731 93.87 H 0.0 **** 0.0
595 H 18.861 60.935 92.496 H 0.0 **** 0.0
596 C 66.409 30.105 1.465 C 0.0 **** 0.0
597 H 66.226 30.827 2.261 H 0.0 **** 0.0
598 H 65.489 29.945 0.902 H 0.0 **** 0.0
599 H 66.738 29.161 1.9 H 0.0 **** 0.0
600 H 67.182 30.487 0.799 H 0.0 **** 0.0
601 C 85.001 37.08 66.702 C 0.0 **** 0.0
602 H 85.5 36.717 65.803 H 0.0 **** 0.0
603 H 85.024 36.305 67.468 H 0.0 **** 0.0
604 H 83.966 37.328 66.467 H 0.0 **** 0.0
605 H 85.514 37.969 67.068 H 0.0 **** 0.0
606 C 33.633 37.621 42.081 C 0.0 **** 0.0
607 H 33.438 37.81 41.025 H 0.0 **** 0.0
608 H 33.176 38.407 42.681 H 0.0 **** 0.0
609 H 34.709 37.61 42.254 H 0.0 **** 0.0
610 H 33.21 36.656 42.361 H 0.0 **** 0.0
611 C 47.512 62.749 92.381 C 0.0 **** 0.0
612 H 47.288 63.448 91.576 H 0.0 **** 0.0
613 H 46.614 62.577 92.974 H 0.0 **** 0.0
614 H 48.293 63.167 93.018 H 0.0 **** 0.0
615 H 47.856 61.806 91.958 H 0.0 **** 0.0
616 C 70.195 55.529 87.465 C 0.0 **** 0.0
617 H 70.097 54.449 87.361 H 0.0 **** 0.0
618 H 70.902 55.754 88.264 H 0.0 **** 0.0
619 H 69.223 55.96 87.708 H 0.0 **** 0.0
620 H 70.556 55.953 86.528 H 0.0 **** 0.0
621 C 68.277 41.934 39.044 C 0.0 **** 0.0
622 H 68.377 40.861 39.202 H 0.0 **** 0.0
623 H 67.962 42.122 38.017 H 0.0 **** 0.0
624 H 69.237 42.418 39.224 H 0.0 **** 0.0
625 H 67.533 42.336 39.732 H 0.0 **** 0.0
626 C 27.486 86.05 90.423 C 0.0 **** 0.0
627 H 26.971 85.172 90.034 H 0.0 **** 0.0
628 H 26.754 86.818 90.675 H 0.0 **** 0.0
629 H 28.17 86.435 89.666 H 0.0 **** 0.0
630 H 28.048 85.776 91.315 H 0.0 **** 0.0
631 C 24.689 56.635 47.351 C 0.0 **** 0.0
632 H 25.22 55.694 47.206 H 0.0 **** 0.0
633 H 23.614 56.448 47.348 H 0.0 **** 0.0
634 H 24.94 57.322 46.543 H 0.0 **** 0.0
635 H 24.98 57.073 48.305 H 0.0 **** 0.0
636 C 17.217 34.012 62.48 C 0.0 **** 0.0
637 H 16.331 34.1 63.108 H 0.0 **** 0.0
638 H 18.108 34.008 63.108 H 0.0 **** 0.0
639 H 17.26 34.856 61.792 H 0.0 **** 0.0
640 H 17.168 33.082 61.912 H 0.0 **** 0.0
641 C 60.915 80.253 20.439 C 0.0 **** 0.0
642 H 59.874 79.996 20.637 H 0.0 **** 0.0
643 H 61.494 80.155 21.357 H 0.0 **** 0.0
644 H 60.973 81.28 20.079 H 0.0 **** 0.0
645 H 61.317 79.58 19.681 H 0.0 **** 0.0
646 C 52.189 53.35 75.176 C 0.0 **** 0.0
647 H 53.046 53.034 74.581 H 0.0 **** 0.0
648 H 51.949 52.578 75.907 H 0.0 **** 0.0
649 H 51.332 53.511 74.522 H 0.0 **** 0.0
650 H 52.429 54.279 75.694 H 0.0 **** 0.0
651 C 44.404 33.63 23.97 C 0.0 **** 0.0
652 H 44.465 33.656 22.882 H 0.0 **** 0.0
653 H 45.16 34.293 24.391 H 0.0 **** 0.0
654 H 44.576 32.613 24.32 H 0.0 **** 0.0
655 H 43.414 33.961 24.285 H 0.0 **** 0.0
656 C 40.881 17.35 37.063 C 0.0 **** 0.0
657 H 41.197 18.319 37.45 H 0.0 **** 0.0
658 H 41.04 16.585 37.824 H 0.0 **** 0.0
659 H 41.464 17.106 36.175 H 0.0 **** 0.0
660 H 39.823 17.39 36.803 H 0.0 **** 0.0
661 C 81.072 41.431 51.772 C 0.0 **** 0.0
662 H 81.446 41.383 50.749 H 0.0 **** 0.0
663 H 81.17 42.451 52.147 H 0.0 **** 0.0
664 H 81.65 40.755 52.402 H 0.0 **** 0.0
665 H 80.023 41.137 51.789 H 0.0 **** 0.0
666 C 94.493 1.073 58.508 C 0.0 **** 0.0
667 H 94.41 0.04 58.169 H 0.0 **** 0.0
668 H 94.265 1.746 57.681 H 0.0 **** 0.0
669 H 95.508 1.259 58.859 H 0.0 **** 0.0
670 H 93.789 1.246 59.322 H 0.0 **** 0.0
671 C 15.026 33.534 59.36 C 0.0 **** 0.0
672 H 15.685 32.799 58.898 H 0.0 **** 0.0
673 H 14.782 34.31 58.635 H 0.0 **** 0.0
674 H 15.527 33.983 60.218 H 0.0 **** 0.0
675 H 14.11 33.044 59.69 H 0.0 **** 0.0
676 C 21.939 88.362 23.172 C 0.0 **** 0.0
677 H 21.862 88.391 24.259 H 0.0 **** 0.0
678 H 22.766 87.714 22.883 H 0.0 **** 0.0
679 H 22.116 89.369 22.793 H 0.0 **** 0.0
680 H 21.01 87.975 22.753 H 0.0 **** 0.0
681 C 28.519 41.408 62.255 C 0.0 **** 0.0
682 H 28.336 42.253 62.919 H 0.0 **** 0.0
683 H 29.086 40.644 62.788 H 0.0 **** 0.0
684 H 29.088 41.744 61.388 H 0.0 **** 0.0
685 H 27.567 40.991 61.926 H 0.0 **** 0.0
686 C 7.28 35.725 72.945 C 0.0 **** 0.0
687 H 7.301 35.727 71.855 H 0.0 **** 0.0
688 H 7.268 34.696 73.306 H 0.0 **** 0.0
689 H 6.386 36.242 73.293 H 0.0 **** 0.0
690 H 8.166 36.233 73.326 H 0.0 **** 0.0
691 C 59.821 63.19 65.576 C 0.0 **** 0.0
692 H 59.822 63.095 64.49 H 0.0 **** 0.0
693 H 59.094 63.945 65.874 H 0.0 **** 0.0
694 H 60.814 63.486 65.916 H 0.0 **** 0.0
695 H 59.555 62.232 66.024 H 0.0 **** 0.0
696 C 92.981 13.264 16.141 C 0.0 **** 0.0
697 H 93.762 13.99 16.366 H 0.0 **** 0.0
698 H 93.425 12.392 15.66 H 0.0 **** 0.0
699 H 92.248 13.715 15.473 H 0.0 **** 0.0
700 H 92.492 12.959 17.066 H 0.0 **** 0.0
701 C 27.867 73.111 18.222 C 0.0 **** 0.0
702 H 28.303 72.983 17.232 H 0.0 **** 0.0
703 H 28.178 72.288 18.866 H 0.0 **** 0.0
704 H 26.78 73.118 18.142 H 0.0 **** 0.0
705 H 28.206 74.055 18.649 H 0.0 **** 0.0
706 C 17.695 94.959 39.507 C 0.0 **** 0.0
707 H 17.288 95.966 39.409 H 0.0 **** 0.0
708 H 18.631 94.999 40.064 H 0.0 **** 0.0
709 H 17.879 94.545 38.515 H 0.0 **** 0.0
710 H 16.982 94.329 40.038 H 0.0 **** 0.0
711 C 96.306 76.613 80.566 C 0.0 **** 0.0
712 H 95.656 77.486 80.504 H 0.0 **** 0.0
713 H 96.12 75.961 79.712 H 0.0 **** 0.0
714 H 96.098 76.071 81.489 H 0.0 **** 0.0
715 H 97.347 76.933 80.559 H 0.0 **** 0.0
716 C 31.649 40.543 5.605 C 0.0 **** 0.0
717 H 31.527 41.585 5.31 H 0.0 **** 0.0
718 H 31.813 40.487 6.682 H 0.0 **** 0.0
719 H 32.506 40.116 5.085 H 0.0 **** 0.0
720 H 30.75 39.984 5.345 H 0.0 **** 0.0
721 C 7.087 41.869 14.183 C 0.0 **** 0.0
722 H 6.224 41.702 13.538 H 0.0 **** 0.0
723 H 7.89 41.188 13.899 H 0.0 **** 0.0
724 H 6.805 41.687 15.221 H 0.0 **** 0.0
725 H 7.427 42.899 14.075 H 0.0 **** 0.0
726 C 11.059 59.507 12.018 C 0.0 **** 0.0
727 H 11.1 59.684 13.093 H 0.0 **** 0.0
728 H 11.512 58.541 11.792 H 0.0 **** 0.0
729 H 11.605 60.295 11.499 H 0.0 **** 0.0
730 H 10.02 59.507 11.689 H 0.0 **** 0.0
731 C 63.707 86.591 80.031 C 0.0 **** 0.0
732 H 63.846 85.841 79.252 H 0.0 **** 0.0
733 H 64.654 86.762 80.543 H 0.0 **** 0.0
734 H 62.965 86.237 80.747 H 0.0 **** 0.0
735 H 63.363 87.522 79.581 H 0.0 **** 0.0
736 C 91.333 17.261 3.427 C 0.0 **** 0.0
737 H 91.089 16.199 3.457 H 0.0 **** 0.0
738 H 90.573 17.823 3.972 H 0.0 **** 0.0
739 H 91.362 17.598 2.391 H 0.0 **** 0.0
740 H 92.306 17.423 3.89 H 0.0 **** 0.0
741 C 34.998 90.953 67.08 C 0.0 **** 0.0
742 H 34.927 90.588 66.055 H 0.0 **** 0.0
743 H 34.453 90.281 67.743 H 0.0 **** 0.0
744 H 34.567 91.953 67.14 H 0.0 **** 0.0
745 H 36.045 90.991 67.38 H 0.0 **** 0.0
746 C 67.437 78.785 20.846 C 0.0 **** 0.0
747 H 67.47 78.792 21.936 H 0.0 **** 0.0
748 H 67.085 77.813 20.5 H 0.0 **** 0.0
749 H 68.435 78.973 20.451 H 0.0 **** 0.0
750 H 66.756 79.562 20.499 H 0.0 **** 0.0
751 C 80.046 80.577 55.325 C 0.0 **** 0.0
752 H 80.932 81.2 55.2 H 0.0 **** 0.0
753 H 79.697 80.241 54.348 H 0.0 **** 0.0
754 H 79.261 81.155 55.813 H 0.0 **** 0.0
755 H 80.295 79.711 55.94 H 0.0 **** 0.0
756 C 24.541 60.043 11.587 C 0.0 **** 0.0
757 H 23.897 60.63 10.933 H 0.0 **** 0.0
758 H 23.978 59.2 11.989 H 0.0 **** 0.0
759 H 24.893 60.669 12.407 H 0.0 **** 0.0
760 H 25.394 59.673 11.019 H 0.0 **** 0.0
761 C 30.224 8.994 13.892 C 0.0 **** 0.0
762 H 30.452 8.972 14.958 H 0.0 **** 0.0
763 H 30.788 8.211 13.385 H 0.0 **** 0.0
764 H 30.5 9.965 13.482 H 0.0 **** 0.0
765 H 29.157 8.827 13.746 H 0.0 **** 0.0
766 C 22.908 34.139 66.997 C 0.0 **** 0.0
767 H 23.185 34.655 66.078 H 0.0 **** 0.0
768 H 22.905 34.848 67.826 H 0.0 **** 0.0
769 H 23.627 33.346 67.2 H 0.0 **** 0.0
770 H 21.913 33.707 66.885 H 0.0 **** 0.0
771 C 29.333 66.837 59.948 C 0.0 **** 0.0
772 H 29.525 66.49 58.932 H 0.0 **** 0.0
773 H 29.742 67.84 60.072 H 0.0 **** 0.0
774 H 29.807 66.16 60.658 H 0.0 **** 0.0
775 H 28.258 66.857 60.128 H 0.0 **** 0.0
776 C 95.169 89.329 72.79 C 0.0 **** 0.0
777 H 94.863 89.205 71.752 H 0.0 **** 0.0
778 H 95.673 88.425 73.131 H 0.0 **** 0.0
779 H 94.289 89.51 73.408 H 0.0 **** 0.0
780 H 95.849 90.177 72.87 H 0.0 **** 0.0
781 C 49.584 74.778 7.379 C 0.0 **** 0.0
782 H 48.675 75.315 7.109 H 0.0 **** 0.0
783 H 49.837 74.99 8.418 H 0.0 **** 0.0
784 H 50.401 75.1 6.733 H 0.0 **** 0.0
785 H 49.423 73.707 7.255 H 0.0 **** 0.0
786 C 60.602 9.089 42.227 C 0.0 **** 0.0
787 H 60.81 8.021 42.165 H 0.0 **** 0.0
788 H 59.531 9.243 42.363 H 0.0 **** 0.0
789 H 60.926 9.576 41.308 H 0.0 **** 0.0
790 H 61.141 9.515 43.074 H 0.0 **** 0.0
791 C 20.287 39.726 35.071 C 0.0 **** 0.0
792 H 20.428 38.74 34.629 H 0.0 **** 0.0
793 H 20.75 39.752 36.057 H 0.0 **** 0.0
794 H 19.221 39.934 35.164 H 0.0 **** 0.0
795 H 20.749 40.479 34.432 H 0.0 **** 0.0
796 C 65.891 4.524 49.548 C 0.0 **** 0.0
797 H 66.514 4.385 48.664 H 0.0 **** 0.0
798 H 65.457 3.567 49.839 H 0.0 **** 0.0
799 H 65.093 5.231 49.321 H 0.0 **** 0.0
800 H 66.499 4.912 50.365 H 0.0 **** 0.0
801 C 47.322 40.712 23.947 C 0.0 **** 0.0
802 H 46.478 40.621 24.631 H 0.0 **** 0.0
803 H 47.993 39.864 24.082 H 0.0 **** 0.0
804 H 47.859 41.638 24.154 H 0.0 **** 0.0
805 H 46.957 40.727 22.92 H 0.0 **** 0.0
806 C 30.141 86.014 39.028 C 0.0 **** 0.0
807 H 30.507 86.069 38.003 H 0.0 **** 0.0
808 H 29.052 86.062 39.028 H 0.0 **** 0.0
809 H 30.541 86.85 39.602 H 0.0 **** 0.0
810 H 30.464 85.076 39.479 H 0.0 **** 0.0
811 C 64.425 37.083 22.25 C 0.0 **** 0.0
812 H 63.549 36.464 22.443 H 0.0 **** 0.0
813 H 64.164 38.133 22.382 H 0.0 **** 0.0
814 H 64.768 36.92 21.228 H 0.0 **** 0.0
815 H 65.22 36.815 22.947 H 0.0 **** 0.0
816 C 59.99 29.655 74.723 C 0.0 **** 0.0
817 H 59.984 29.687 75.812 H 0.0 **** 0.0
818 H 60.274 30.633 74.332 H 0.0 **** 0.0
819 H 58.995 29.394 74.362 H 0.0 **** 0.0
820 H 60.707 28.907 74.385 H 0.0 **** 0.0
821 C 27.932 57.303 3.094 C 0.0 **** 0.0
822 H 27.938 57.304 2.004 H 0.0 **** 0.0
823 H 28.547 58.124 3.461 H 0.0 **** 0.0
824 H 28.333 56.357 3.458 H 0.0 **** 0.0
825 H 26.91 57.426 3.452 H 0.0 **** 0.0
826 C 30.827 96.039 75.702 C 0.0 **** 0.0
827 H 30.811 96.027 74.612 H 0.0 **** 0.0
828 H 29.849 96.343 76.075 H 0.0 **** 0.0
829 H 31.583 96.745 76.046 H 0.0 **** 0.0
830 H 31.064 95.042 76.072 H 0.0 **** 0.0
831 C 97.335 21.977 82.306 C 0.0 **** 0.0
832 H 96.947 22.891 81.855 H 0.0 **** 0.0
833 H 98.423 21.976 82.247 H 0.0 **** 0.0
834 H 96.941 21.113 81.77 H 0.0 **** 0.0
835 H 97.027 21.929 83.35 H 0.0 **** 0.0
836 C 95.13 77.837 77.15 C 0.0 **** 0.0
837 H 94.576 77.46 76.29 H 0.0 **** 0.0
838 H 94.822 77.296 78.045 H 0.0 **** 0.0
839 H 94.922 78.899 77.278 H 0.0 **** 0.0
840 H 96.197 77.692 76.987 H 0.0 **** 0.0
841 C 81.213 69.257 30.343 C 0.0 **** 0.0
842 H 81.034 69.535 31.381 H 0.0 **** 0.0
843 H 80.354 69.546 29.736 H 0.0 **** 0.0
844 H 81.36 68.179 30.275 H 0.0 **** 0.0
845 H 82.104 69.768 29.978 H 0.0 **** 0.0
846 C 56.502 74.917 23.264 C 0.0 **** 0.0
847 H 57.299 74.955 22.521 H 0.0 **** 0.0
848 H 56.645 75.717 23.991 H 0.0 **** 0.0
849 H 56.526 73.954 23.773 H 0.0 **** 0.0
850 H 55.539 75.043 22.769 H 0.0 **** 0.0
851 C 22.203 88.367 40.639 C 0.0 **** 0.0
852 H 22.198 87.826 39.693 H 0.0 **** 0.0
853 H 21.684 89.317 40.517 H 0.0 **** 0.0
854 H 23.233 88.551 40.946 H 0.0 **** 0.0
855 H 21.699 87.772 41.4 H 0.0 **** 0.0
856 C 53.735 73.712 10.317 C 0.0 **** 0.0
857 H 54.297 73.939 11.222 H 0.0 **** 0.0
858 H 52.871 73.097 10.571 H 0.0 **** 0.0
859 H 54.374 73.17 9.619 H 0.0 **** 0.0
860 H 53.398 74.64 9.856 H 0.0 **** 0.0
861 C 16.865 77.475 89.318 C 0.0 **** 0.0
862 H 17.262 78.17 88.578 H 0.0 **** 0.0
863 H 17.486 77.503 90.213 H 0.0 **** 0.0
864 H 16.867 76.466 88.905 H 0.0 **** 0.0
865 H 15.844 77.761 89.573 H 0.0 **** 0.0
866 C 50.717 5.488 54.47 C 0.0 **** 0.0
867 H 51.488 6.241 54.311 H 0.0 **** 0.0
868 H 51.103 4.705 55.124 H 0.0 **** 0.0
869 H 50.431 5.053 53.513 H 0.0 **** 0.0
870 H 49.846 5.952 54.933 H 0.0 **** 0.0
871 C 81.303 82.116 64.495 C 0.0 **** 0.0
872 H 81.345 81.531 63.576 H 0.0 **** 0.0
873 H 81.317 81.444 65.354 H 0.0 **** 0.0
874 H 80.386 82.704 64.509 H 0.0 **** 0.0
875 H 82.164 82.783 64.541 H 0.0 **** 0.0
876 C 6.281 92.264 20.488 C 0.0 **** 0.0
877 H 6.277 92.272 19.398 H 0.0 **** 0.0
878 H 5.889 91.311 20.845 H 0.0 **** 0.0
879 H 5.656 93.076 20.859 H 0.0 **** 0.0
880 H 7.301 92.396 20.849 H 0.0 **** 0.0
881 C 14.874 94.869 35.131 C 0.0 **** 0.0
882 H 15.111 94.713 36.183 H 0.0 **** 0.0
883 H 15.622 94.371 34.513 H 0.0 **** 0.0
884 H 14.876 95.937 34.913 H 0.0 **** 0.0
885 H 13.889 94.455 34.915 H 0.0 **** 0.0
886 C 50.301 3.232 89.68 C 0.0 **** 0.0
887 H 50.338 3.074 90.758 H 0.0 **** 0.0
888 H 50.367 4.3 89.468 H 0.0 **** 0.0
889 H 49.362 2.841 89.287 H 0.0 **** 0.0
890 H 51.136 2.715 89.208 H 0.0 **** 0.0
891 C 70.117 18.208 52.563 C 0.0 **** 0.0
892 H 69.432 19.027 52.345 H 0.0 **** 0.0
893 H 69.828 17.33 51.985 H 0.0 **** 0.0
894 H 70.076 17.973 53.627 H 0.0 **** 0.0
895 H 71.131 18.502 52.295 H 0.0 **** 0.0
896 C 2.605 36.711 13.445 C 0.0 **** 0.0
897 H 2.523 36.797 12.361 H 0.0 **** 0.0
898 H 2.997 37.643 13.854 H 0.0 **** 0.0
899 H 3.28 35.892 13.694 H 0.0 **** 0.0
900 H 1.621 36.512 13.869 H 0.0 **** 0.0
901 C 21.605 37.408 60.655 C 0.0 **** 0.0
902 H 21.82 37.922 59.718 H 0.0 **** 0.0
903 H 20.573 37.056 60.647 H 0.0 **** 0.0
904 H 21.749 38.095 61.488 H 0.0 **** 0.0
905 H 22.278 36.558 60.765 H 0.0 **** 0.0
906 C 73.939 73.441 50.821 C 0.0 **** 0.0
907 H 74.217 74.493 50.763 H 0.0 **** 0.0
908 H 74.826 72.823 50.678 H 0.0 **** 0.0
909 H 73.209 73.215 50.044 H 0.0 **** 0.0
910 H 73.504 73.233 51.799 H 0.0 **** 0.0
911 C 39.82 38.375 27.628 C 0.0 **** 0.0
912 H 40.031 38.702 26.61 H 0.0 **** 0.0
913 H 38.863 38.785 27.95 H 0.0 **** 0.0
914 H 40.609 38.726 28.293 H 0.0 **** 0.0
915 H 39.778 37.286 27.658 H 0.0 **** 0.0
916 C 20.359 90.065 92.589 C 0.0 **** 0.0
917 H 20.272 90.024 93.675 H 0.0 **** 0.0
918 H 19.385 89.868 92.139 H 0.0 **** 0.0
919 H 21.073 89.314 92.253 H 0.0 **** 0.0
920 H 20.704 91.055 92.29 H 0.0 **** 0.0
921 C 62.166 19.603 4.752 C 0.0 **** 0.0
922 H 62.8 18.758 5.021 H 0.0 **** 0.0
923 H 61.879 19.522 3.703 H 0.0 **** 0.0
924 H 62.714 20.532 4.909 H 0.0 **** 0.0
925 H 61.272 19.599 5.375 H 0.0 **** 0.0
926 C 98.236 35.05 8.495 C 0.0 **** 0.0
927 H 98.549 34.044 8.772 H 0.0 **** 0.0
928 H 98.315 35.707 9.362 H 0.0 **** 0.0
929 H 97.202 35.027 8.15 H 0.0 **** 0.0
930 H 98.877 35.423 7.697 H 0.0 **** 0.0
931 C 16.321 79.228 80.39 C 0.0 **** 0.0
932 H 16.725 78.244 80.628 H 0.0 **** 0.0
933 H 16.621 79.509 79.38 H 0.0 **** 0.0
934 H 16.706 79.96 81.1 H 0.0 **** 0.0
935 H 15.233 79.199 80.451 H 0.0 **** 0.0
936 C 93.798 87.178 86.33 C 0.0 **** 0.0
937 H 93.719 88.205 85.974 H 0.0 **** 0.0
938 H 93.367 86.503 85.591 H 0.0 **** 0.0
939 H 93.259 87.078 87.272 H 0.0 **** 0.0
940 H 94.848 86.926 86.483 H 0.0 **** 0.0
941 C 87.443 60.2 85.682 C 0.0 **** 0.0
942 H 87.673 60.038 84.629 H 0.0 **** 0.0
943 H 87.978 61.08 86.04 H 0.0 **** 0.0
944 H 87.751 59.328 86.259 H 0.0 **** 0.0
945 H 86.371 60.353 85.8 H 0.0 **** 0.0
946 C 52.372 86.53 18.725 C 0.0 **** 0.0
947 H 53.265 86.455 18.104 H 0.0 **** 0.0
948 H 52.485 87.36 19.423 H 0.0 **** 0.0
949 H 52.237 85.602 19.281 H 0.0 **** 0.0
950 H 51.503 86.704 18.09 H 0.0 **** 0.0
951 C 42.583 27.619 33.732 C 0.0 **** 0.0
952 H 42.593 27.604 32.642 H 0.0 **** 0.0
953 H 42.776 26.615 34.11 H 0.0 **** 0.0
954 H 41.607 27.957 34.081 H 0.0 **** 0.0
955 H 43.354 28.298 34.094 H 0.0 **** 0.0
956 C 33.158 49.398 51.62 C 0.0 **** 0.0
957 H 32.376 50.096 51.321 H 0.0 **** 0.0
958 H 33.945 49.939 52.145 H 0.0 **** 0.0
959 H 33.574 48.919 50.734 H 0.0 **** 0.0
960 H 32.735 48.64 52.279 H 0.0 **** 0.0
961 C 11.882 39.195 79.286 C 0.0 **** 0.0
962 H 11.297 40.095 79.095 H 0.0 **** 0.0
963 H 12.224 38.776 78.339 H 0.0 **** 0.0
964 H 11.262 38.463 79.805 H 0.0 **** 0.0
965 H 12.743 39.446 79.905 H 0.0 **** 0.0
966 C 74.387 69.982 56.305 C 0.0 **** 0.0
967 H 75.032 69.193 55.918 H 0.0 **** 0.0
968 H 74.7 70.941 55.89 H 0.0 **** 0.0
969 H 74.464 70.013 57.391 H 0.0 **** 0.0
970 H 73.355 69.781 56.019 H 0.0 **** 0.0
971 C 47.154 53.346 59.241 C 0.0 **** 0.0
972 H 47.101 54.155 58.512 H 0.0 **** 0.0
973 H 47.664 53.699 60.138 H 0.0 **** 0.0
974 H 47.707 52.509 58.814 H 0.0 **** 0.0
975 H 46.146 53.023 59.498 H 0.0 **** 0.0
976 C 46.478 17.684 44.999 C 0.0 **** 0.0
977 H 45.46 17.648 45.387 H 0.0 **** 0.0
978 H 46.512 17.196 44.025 H 0.0 **** 0.0
979 H 47.147 17.168 45.688 H 0.0 **** 0.0
980 H 46.791 18.723 44.897 H 0.0 **** 0.0
981 C 66.978 50.668 5.757 C 0.0 **** 0.0
982 H 66.729 51.672 5.412 H 0.0 **** 0.0
983 H 68.016 50.647 6.091 H 0.0 **** 0.0
984 H 66.845 49.96 4.94 H 0.0 **** 0.0
985 H 66.324 50.395 6.585 H 0.0 **** 0.0
986 C 82.552 71.098 96.324 C 0.0 **** 0.0
987 H 82.982 71.057 95.324 H 0.0 **** 0.0
988 H 81.873 71.948 96.393 H 0.0 **** 0.0
989 H 83.349 71.209 97.059 H 0.0 **** 0.0
990 H 82.002 70.177 96.521 H 0.0 **** 0.0
991 C 26.896 51.246 48.159 C 0.0 **** 0.0
992 H 26.428 51.873 48.917 H 0.0 **** 0.0
993 H 26.635 51.617 47.168 H 0.0 **** 0.0
994 H 26.543 50.22 48.268 H 0.0 **** 0.0
995 H 27.979 51.272 48.283 H 0.0 **** 0.0
996 C 16.945 49.312 34.595 C 0.0 **** 0.0
997 H 16.645 49.43 35.636 H 0.0 **** 0.0
998 H 17.173 50.29 34.17 H 0.0 **** 0.0
999 H 16.132 48.852 34.033 H 0.0 **** 0.0
1000 H 17.829 48.677 34.541 H 0.0 **** 0.0
1001 C 90.111 42.185 42.263 C 0.0 **** 0.0
1002 H 89.802 42.161 41.218 H 0.0 **** 0.0
1003 H 89.807 43.132 42.71 H 0.0 **** 0.0
1004 H 91.195 42.087 42.323 H 0.0 **** 0.0
1005 H 89.641 41.362 42.8 H 0.0 **** 0.0
1006 C 56.785 2.305 69.368 C 0.0 **** 0.0
1007 H 56.512 2.429 68.32 H 0.0 **** 0.0
1008 H 57.865 2.405 69.476 H 0.0 **** 0.0
1009 H 56.475 1.317 69.709 H 0.0 **** 0.0
1010 H 56.288 3.069 69.965 H 0.0 **** 0.0
1011 C 65.581 69.189 32.61 C 0.0 **** 0.0
1012 H 65.281 68.877 33.61 H 0.0 **** 0.0
1013 H 64.931 69.995 32.271 H 0.0 **** 0.0
1014 H 65.5 68.344 31.926 H 0.0 **** 0.0
1015 H 66.613 69.54 32.633 H 0.0 **** 0.0
1016 C 85.784 72.268 16.564 C 0.0 **** 0.0
1017 H 86.434 72.403 15.7 H 0.0 **** 0.0
1018 H 84.789 71.973 16.229 H 0.0 **** 0.0
1019 H 85.718 73.204 17.118 H 0.0 **** 0.0
1020 H 86.195 71.492 17.21 H 0.0 **** 0.0
1021 C 94.869 57.278 2.387 C 0.0 **** 0.0
1022 H 94.89 58.096 3.108 H 0.0 **** 0.0
1023 H 95.679 56.582 2.604 H 0.0 **** 0.0
1024 H 94.992 57.678 1.381 H 0.0 **** 0.0
1025 H 93.913 56.758 2.457 H 0.0 **** 0.0
1026 C 30.556 33.439 75.603 C 0.0 **** 0.0
1027 H 30.535 33.524 76.69 H 0.0 **** 0.0
1028 H 31.072 32.521 75.321 H 0.0 **** 0.0
1029 H 31.082 34.296 75.183 H 0.0 **** 0.0
1030 H 29.536 33.416 75.221 H 0.0 **** 0.0
1031 C 93.242 92.78 81.293 C 0.0 **** 0.0
1032 H 93.986 93.575 81.242 H 0.0 **** 0.0
1033 H 93.64 91.947 81.872 H 0.0 **** 0.0
1034 H 93.005 92.441 80.284 H 0.0 **** 0.0
1035 H 92.339 93.158 81.771 H 0.0 **** 0.0
1036 C 47.307 82.577 65.551 C 0.0 **** 0.0
1037 H 47.369 82.565 66.64 H 0.0 **** 0.0
1038 H 46.265 82.476 65.246 H 0.0 **** 0.0
1039 H 47.887 81.749 65.145 H 0.0 **** 0.0
1040 H 47.706 83.519 65.176 H 0.0 **** 0.0
1041 C 59.248 7.661 33.99 C 0.0 **** 0.0
1042 H 59.664 6.676 34.2 H 0.0 **** 0.0
1043 H 58.438 7.567 33.266 H 0.0 **** 0.0
1044 H 60.027 8.305 33.583 H 0.0 **** 0.0
1045 H 58.862 8.096 34.912 H 0.0 **** 0.0
1046 C 43.854 7.259 24.097 C 0.0 **** 0.0
1047 H 43.469 6.36 24.578 H 0.0 **** 0.0
1048 H 43.125 8.064 24.196 H 0.0 **** 0.0
1049 H 44.033 7.058 23.041 H 0.0 **** 0.0
1050 H 44.789 7.554 24.574 H 0.0 **** 0.0
1051 C 24.618 2.072 25.432 C 0.0 **** 0.0
1052 H 24.505 2.585 26.387 H 0.0 **** 0.0
1053 H 23.641 1.74 25.08 H 0.0 **** 0.0
1054 H 25.272 1.21 25.558 H 0.0 **** 0.0
1055 H 25.054 2.755 24.703 H 0.0 **** 0.0
1056 C 58.662 64.546 27.731 C 0.0 **** 0.0
1057 H 57.991 65.26 27.252 H 0.0 **** 0.0
1058 H 59.673 64.685 27.348 H 0.0 **** 0.0
1059 H 58.327 63.532 27.515 H 0.0 **** 0.0
1060 H 58.656 64.709 28.809 H 0.0 **** 0.0
1061 C 32.239 32.6 82.356 C 0.0 **** 0.0
1062 H 33.222 32.853 81.958 H 0.0 **** 0.0
1063 H 31.994 31.571 82.091 H 0.0 **** 0.0
1064 H 31.493 33.272 81.933 H 0.0 **** 0.0
1065 H 32.249 32.703 83.441 H 0.0 **** 0.0
1066 C 71.847 49.006 66.975 C 0.0 **** 0.0
1067 H 71.592 49.207 65.935 H 0.0 **** 0.0
1068 H 71.311 49.702 67.621 H 0.0 **** 0.0
1069 H 72.92 49.131 67.117 H 0.0 **** 0.0
1070 H 71.564 47.984 67.228 H 0.0 **** 0.0
1071 C 77.824 14.285 5.385 C 0.0 **** 0.0
1072 H 78.486 15.127 5.59 H 0.0 **** 0.0
1073 H 77.57 14.274 4.325 H 0.0 **** 0.0
1074 H 76.914 14.387 5.977 H 0.0 **** 0.0
1075 H 78.327 13.355 5.649 H 0.0 **** 0.0
1076 C 91.697 77.578 76.323 C 0.0 **** 0.0
1077 H 91.249 77.668 75.334 H 0.0 **** 0.0
1078 H 92.189 78.514 76.585 H 0.0 **** 0.0
1079 H 92.429 76.77 76.318 H 0.0 **** 0.0
1080 H 90.919 77.358 77.055 H 0.0 **** 0.0
1081 C 58.997 71.942 61.798 C 0.0 **** 0.0
1082 H 59.121 71.975 62.88 H 0.0 **** 0.0
1083 H 59.093 70.912 61.453 H 0.0 **** 0.0
1084 H 59.762 72.557 61.325 H 0.0 **** 0.0
1085 H 58.01 72.323 61.534 H 0.0 **** 0.0
1086 C 93.224 56.139 71.033 C 0.0 **** 0.0
1087 H 93.061 55.486 71.89 H 0.0 **** 0.0
1088 H 94.095 56.768 71.217 H 0.0 **** 0.0
1089 H 92.346 56.768 70.884 H 0.0 **** 0.0
1090 H 93.393 55.534 70.142 H 0.0 **** 0.0
1091 C 42.368 1.497 43.323 C 0.0 **** 0.0
1092 H 43.087 0.808 42.88 H 0.0 **** 0.0
1093 H 42.519 1.536 44.402 H 0.0 **** 0.0
1094 H 41.356 1.152 43.109 H 0.0 **** 0.0
1095 H 42.509 2.491 42.899 H 0.0 **** 0.0
1096 C 60.302 51.809 84.951 C 0.0 **** 0.0
1097 H 60.026 51.733 83.899 H 0.0 **** 0.0
1098 H 61.034 51.037 85.191 H 0.0 **** 0.0
1099 H 59.414 51.674 85.569 H 0.0 **** 0.0
1100 H 60.733 52.791 85.144 H 0.0 **** 0.0
1101 C 57.375 58.497 28.98 C 0.0 **** 0.0
1102 H 57.442 58.669 30.054 H 0.0 **** 0.0
1103 H 56.467 58.96 28.594 H 0.0 **** 0.0
1104 H 57.348 57.425 28.786 H 0.0 **** 0.0
1105 H 58.244 58.934 28.488 H 0.0 **** 0.0
1106 C 62.587 5.707 84.946 C 0.0 **** 0.0
1107 H 61.612 5.85 85.412 H 0.0 **** 0.0
1108 H 62.638 6.286 84.024 H 0.0 **** 0.0
1109 H 62.73 4.65 84.72 H 0.0 **** 0.0
1110 H 63.369 6.041 85.629 H 0.0 **** 0.0
1111 C 31.543 47.015 8.786 C 0.0 **** 0.0
1112 H 32.26 46.965 7.966 H 0.0 **** 0.0
1113 H 31.814 46.285 9.55 H 0.0 **** 0.0
1114 H 30.545 46.793 8.409 H 0.0 **** 0.0
1115 H 31.554 48.015 9.219 H 0.0 **** 0.0
1116 C 19.627 48.311 24.23 C 0.0 **** 0.0
1117 H 19.147 49.251 24.501 H 0.0 **** 0.0
1118 H 19.23 47.962 23.276 H 0.0 **** 0.0
1119 H 19.429 47.566 25.001 H 0.0 **** 0.0
1120 H 20.703 48.465 24.141 H 0.0 **** 0.0
1121 C 2.219 53.204 72.291 C 0.0 **** 0.0
1122 H 2.162 53.144 71.204 H 0.0 **** 0.0
1123 H 1.45 52.568 72.73 H 0.0 **** 0.0
1124 H 2.062 54.235 72.607 H 0.0 **** 0.0
1125 H 3.201 52.867 72.622 H 0.0 **** 0.0
1126 C 10.207 76.315 19.151 C 0.0 **** 0.0
1127 H 10.806 76.059 20.025 H 0.0 **** 0.0
1128 H 10.021 77.39 19.141 H 0.0 **** 0.0
1129 H 9.257 75.782 19.192 H 0.0 **** 0.0
1130 H 10.745 76.031 18.247 H 0.0 **** 0.0
1131 C 6.218 51.947 93.654 C 0.0 **** 0.0
1132 H 5.997 52.281 94.667 H 0.0 **** 0.0
1133 H 6.341 52.814 93.004 H 0.0 **** 0.0
1134 H 5.396 51.331 93.287 H 0.0 **** 0.0
1135 H 7.137 51.361 93.657 H 0.0 **** 0.0
1136 C 64.535 88.396 38.662 C 0.0 **** 0.0
1137 H 64.883 88.227 37.643 H 0.0 **** 0.0
1138 H 65.089 89.225 39.102 H 0.0 **** 0.0
1139 H 64.696 87.495 39.255 H 0.0 **** 0.0
1140 H 63.472 88.635 38.648 H 0.0 **** 0.0
1141 C 18.72 24.973 49.566 C 0.0 **** 0.0
1142 H 18.609 25.645 48.715 H 0.0 **** 0.0
1143 H 17.815 25.004 50.173 H 0.0 **** 0.0
1144 H 19.573 25.287 50.168 H 0.0 **** 0.0
1145 H 18.883 23.957 49.207 H 0.0 **** 0.0
1146 C 45.787 97.399 50.172 C 0.0 **** 0.0
1147 H 45.942 97.128 51.217 H 0.0 **** 0.0
1148 H 44.817 97.884 50.063 H 0.0 **** 0.0
1149 H 45.817 96.501 49.556 H 0.0 **** 0.0
1150 H 46.574 98.083 49.855 H 0.0 **** 0.0
1151 C 81.823 85.034 51.385 C 0.0 **** 0.0
1152 H 81.983 85.804 52.14 H 0.0 **** 0.0
1153 H 82.017 85.45 50.396 H 0.0 **** 0.0
1154 H 80.793 84.682 51.437 H 0.0 **** 0.0
1155 H 82.501 84.2 51.568 H 0.0 **** 0.0
1156 C 7.503 77.909 37.569 C 0.0 **** 0.0
1157 H 7.968 77.414 38.422 H 0.0 **** 0.0
1158 H 6.801 77.226 37.09 H 0.0 **** 0.0
1159 H 8.273 78.2 36.854 H 0.0 **** 0.0
1160 H 6.97 78.797 37.91 H 0.0 **** 0.0
1161 C 87.639 53.229 22.118 C 0.0 **** 0.0
1162 H 87.874 52.69 23.036 H 0.0 **** 0.0
1163 H 87.51 54.288 22.341 H 0.0 **** 0.0
1164 H 86.719 52.833 21.689 H 0.0 **** 0.0
1165 H 88.455 53.104 21.405 H 0.0 **** 0.0
1166 C 9.517 72.533 89.394 C 0.0 **** 0.0
1167 H 9.515 72.512 90.484 H 0.0 **** 0.0
1168 H 10.529 72.362 89.029 H 0.0 **** 0.0
1169 H 9.165 73.505 89.05 H 0.0 **** 0.0
1170 H 8.857 71.753 89.016 H 0.0 **** 0.0
1171 C 55.321 37.935 14.858 C 0.0 **** 0.0
1172 H 55.067 37.049 14.275 H 0.0 **** 0.0
1173 H 54.495 38.644 14.818 H 0.0 **** 0.0
1174 H 56.217 38.397 14.443 H 0.0 **** 0.0
1175 H 55.506 37.648 15.893 H 0.0 **** 0.0
1176 C 38.525 28.76 16.631 C 0.0 **** 0.0
1177 H 38.745 28.555 15.583 H 0.0 **** 0.0
1178 H 37.709 29.48 16.697 H 0.0 **** 0.0
1179 H 39.411 29.17 17.114 H 0.0 **** 0.0
1180 H 38.235 27.835 17.129 H 0.0 **** 0.0
1181 C 67.612 14.878 94.109 C 0.0 **** 0.0
1182 H 67.439 15.576 94.929 H 0.0 **** 0.0
1183 H 66.656 14.569 93.688 H 0.0 **** 0.0
1184 H 68.145 14.004 94.483 H 0.0 **** 0.0
1185 H 68.209 15.365 93.338 H 0.0 **** 0.0
1186 C 75.656 11.398 57.266 C 0.0 **** 0.0
1187 H 75.771 10.727 58.117 H 0.0 **** 0.0
1188 H 76.356 11.111 56.481 H 0.0 **** 0.0
1189 H 75.861 12.421 57.581 H 0.0 **** 0.0
1190 H 74.636 11.331 56.887 H 0.0 **** 0.0
1191 C 70.596 77.578 47.428 C 0.0 **** 0.0
1192 H 70.255 78.351 48.117 H 0.0 **** 0.0
1193 H 71.462 77.942 46.875 H 0.0 **** 0.0
1194 H 69.795 77.334 46.731 H 0.0 **** 0.0
1195 H 70.872 76.687 47.991 H 0.0 **** 0.0
1196 C 45.827 77.17 22.47 C 0.0 **** 0.0
1197 H 45.272 76.361 22.945 H 0.0 **** 0.0
1198 H 45.936 76.961 21.406 H 0.0 **** 0.0
1199 H 46.813 77.251 22.928 H 0.0 **** 0.0
1200 H 45.287 78.107 22.603 H 0.0 **** 0.0
1201 C 75.199 19.26 67.029 C 0.0 **** 0.0
1202 H 74.998 20.33 67.093 H 0.0 **** 0.0
1203 H 74.314 18.748 66.651 H 0.0 **** 0.0
1204 H 75.445 18.877 68.019 H 0.0 **** 0.0
1205 H 76.036 19.087 66.353 H 0.0 **** 0.0
1206 C 41.103 29.288 89.761 C 0.0 **** 0.0
1207 H 40.1 28.926 89.534 H 0.0 **** 0.0
1208 H 41.035 30.252 90.265 H 0.0 **** 0.0
1209 H 41.666 29.401 88.835 H 0.0 **** 0.0
1210 H 41.609 28.573 90.409 H 0.0 **** 0.0
1211 C 2.146 72.136 81.135 C 0.0 **** 0.0
1212 H 3.107 71.886 80.686 H 0.0 **** 0.0
1213 H 1.885 73.165 80.884 H 0.0 **** 0.0
1214 H 2.213 72.032 82.218 H 0.0 **** 0.0
1215 H 1.379 71.463 80.752 H 0.0 **** 0.0
1216 C 3.95 9.308 76.318 C 0.0 **** 0.0
1217 H 3.934 9.388 77.405 H 0.0 **** 0.0
1218 H 4.808 9.855 75.927 H 0.0 **** 0.0
1219 H 3.032 9.729 75.909 H 0.0 **** 0.0
1220 H 4.027 8.258 76.033 H 0.0 **** 0.0
1221 C 4.349 20.788 43.23 C 0.0 **** 0.0
1222 H 4.626 21.07 42.214 H 0.0 **** 0.0
1223 H 4.903 21.401 43.94 H 0.0 **** 0.0
1224 H 4.587 19.737 43.392 H 0.0 **** 0.0
1225 H 3.279 20.945 43.371 H 0.0 **** 0.0
1226 C 18.752 32.355 55.799 C 0.0 **** 0.0
1227 H 19.587 32.782 56.355 H 0.0 **** 0.0
1228 H 19.122 31.585 55.122 H 0.0 **** 0.0
1229 H 18.26 33.14 55.225 H 0.0 **** 0.0
1230 H 18.039 31.914 56.497 H 0.0 **** 0.0
1231 C 93.035 14.462 49.812 C 0.0 **** 0.0
1232 H 93.098 15.547 49.894 H 0.0 **** 0.0
1233 H 91.99 14.155 49.858 H 0.0 **** 0.0
1234 H 93.585 14.004 50.634 H 0.0 **** 0.0
1235 H 93.467 14.144 48.863 H 0.0 **** 0.0
1236 C 10.727 56.197 37.74 C 0.0 **** 0.0
1237 H 11.285 56.908 37.13 H 0.0 **** 0.0
1238 H 9.848 55.859 37.191 H 0.0 **** 0.0
1239 H 10.414 56.679 38.666 H 0.0 **** 0.0
1240 H 11.362 55.342 37.972 H 0.0 **** 0.0
1241 C 22.008 93.261 75.333 C 0.0 **** 0.0
1242 H 21.887 93.232 76.416 H 0.0 **** 0.0
1243 H 21.952 92.247 74.935 H 0.0 **** 0.0
1244 H 22.977 93.695 75.087 H 0.0 **** 0.0
1245 H 21.216 93.868 74.895 H 0.0 **** 0.0
1246 C 83.273 61.587 32.83 C 0.0 **** 0.0
1247 H 84.251 61.84 33.24 H 0.0 **** 0.0
1248 H 82.493 61.993 33.474 H 0.0 **** 0.0
1249 H 83.172 60.503 32.774 H 0.0 **** 0.0
1250 H 83.178 62.012 31.831 H 0.0 **** 0.0
1251 C 23.39 72.414 85.232 C 0.0 **** 0.0
1252 H 22.53 72.503 85.896 H 0.0 **** 0.0
1253 H 24.146 71.782 85.699 H 0.0 **** 0.0
1254 H 23.808 73.403 85.044 H 0.0 **** 0.0
1255 H 23.075 71.968 84.288 H 0.0 **** 0.0
1256 C 18.827 23.491 88.095 C 0.0 **** 0.0
1257 H 18.169 24.062 88.75 H 0.0 **** 0.0
1258 H 19.864 23.758 88.3 H 0.0 **** 0.0
1259 H 18.591 23.718 87.056 H 0.0 **** 0.0
1260 H 18.683 22.425 88.276 H 0.0 **** 0.0
1261 C 9.99 83.517 82.461 C 0.0 **** 0.0
1262 H 10.69 83.132 83.203 H 0.0 **** 0.0
1263 H 8.969 83.377 82.818 H 0.0 **** 0.0
1264 H 10.124 82.979 81.522 H 0.0 **** 0.0
1265 H 10.177 84.579 82.301 H 0.0 **** 0.0
1266 C 92.281 6.915 69.08 C 0.0 **** 0.0
1267 H 91.972 6.991 68.037 H 0.0 **** 0.0
1268 H 93.294 7.302 69.187 H 0.0 **** 0.0
1269 H 92.255 5.87 69.391 H 0.0 **** 0.0
1270 H 91.601 7.496 69.703 H 0.0 **** 0.0
1271 C 3.008 63.997 86.081 C 0.0 **** 0.0
1272 H 2.902 64.877 85.447 H 0.0 **** 0.0
1273 H 2.064 63.802 86.59 H 0.0 **** 0.0
1274 H 3.79 64.173 86.82 H 0.0 **** 0.0
1275 H 3.275 63.137 85.467 H 0.0 **** 0.0
1276 C 66.978 69.919 7.303 C 0.0 **** 0.0
1277 H 66.581 69.871 8.316 H 0.0 **** 0.0
1278 H 66.42 69.237 6.661 H 0.0 **** 0.0
1279 H 68.03 69.632 7.31 H 0.0 **** 0.0
1280 H 66.882 70.936 6.923 H 0.0 **** 0.0
1281 C 67.042 92.063 24.133 C 0.0 **** 0.0
1282 H 66.365 92.269 24.962 H 0.0 **** 0.0
1283 H 66.917 91.029 23.811 H 0.0 **** 0.0
1284 H 68.071 92.221 24.457 H 0.0 **** 0.0
1285 H 66.815 92.732 23.304 H 0.0 **** 0.0
1286 C 85.816 42.684 21.345 C 0.0 **** 0.0
1287 H 85.48 42.919 20.335 H 0.0 **** 0.0
1288 H 86.779 42.174 21.298 H 0.0 **** 0.0
1289 H 85.085 42.038 21.83 H 0.0 **** 0.0
1290 H 85.921 43.607 21.916 H 0.0 **** 0.0
1291 C 13.003 4.762 52.705 C 0.0 **** 0.0
1292 H 13.087 5.432 51.849 H 0.0 **** 0.0
1293 H 12.374 5.224 53.467 H 0.0 **** 0.0
1294 H 13.994 4.572 53.117 H 0.0 **** 0.0
1295 H 12.555 3.821 52.386 H 0.0 **** 0.0
1296 C 34.182 91.886 26.839 C 0.0 **** 0.0
1297 H 33.919 91.437 25.881 H 0.0 **** 0.0
1298 H 34.037 91.155 27.634 H 0.0 **** 0.0
1299 H 33.547 92.753 27.021 H 0.0 **** 0.0
1300 H 35.226 92.199 26.818 H 0.0 **** 0.0
1301 C 26.377 23.021 25.931 C 0.0 **** 0.0
1302 H 26.519 24.094 26.059 H 0.0 **** 0.0
1303 H 26.087 22.578 26.884 H 0.0 **** 0.0
1304 H 27.307 22.57 25.587 H 0.0 **** 0.0
1305 H 25.593 22.845 25.194 H 0.0 **** 0.0
1306 C 39.924 33.019 87.632 C 0.0 **** 0.0
1307 H 39.237 32.249 87.982 H 0.0 **** 0.0
1308 H 40.464 33.438 88.481 H 0.0 **** 0.0
1309 H 39.36 33.809 87.134 H 0.0 **** 0.0
1310 H 40.633 32.581 86.93 H 0.0 **** 0.0
1311 C 97.047 17.475 78.323 C 0.0 **** 0.0
1312 H 96.714 17.319 79.349 H 0.0 **** 0.0
1313 H 96.189 17.713 77.694 H 0.0 **** 0.0
1314 H 97.526 16.567 77.955 H 0.0 **** 0.0
1315 H 97.759 18.299 78.293 H 0.0 **** 0.0
1316 C 3.088 70.373 62.696 C 0.0 **** 0.0
1317 H 2.505 70.007 63.542 H 0.0 **** 0.0
1318 H 2.909 69.735 61.83 H 0.0 **** 0.0
1319 H 4.148 70.353 62.95 H 0.0 **** 0.0
1320 H 2.788 71.395 62.464 H 0.0 **** 0.0
1321 C 54.267 46.527 27.657 C 0.0 **** 0.0
1322 H 53.302 46.275 28.096 H 0.0 **** 0.0
1323 H 54.822 47.168 28.343 H 0.0 **** 0.0
1324 H 54.111 47.053 26.714 H 0.0 **** 0.0
1325 H 54.832 45.614 27.474 H 0.0 **** 0.0
1326 C 47.312 60.709 73.071 C 0.0 **** 0.0
1327 H 46.245 60.537 72.931 H 0.0 **** 0.0
1328 H 47.694 60.021 73.826 H 0.0 **** 0.0
1329 H 47.474 61.736 73.399 H 0.0 **** 0.0
1330 H 47.833 60.541 72.129 H 0.0 **** 0.0
1331 C 29.983 3.309 79.042 C 0.0 **** 0.0
1332 H 29.575 3.591 80.012 H 0.0 **** 0.0
1333 H 29.633 4.01 78.284 H 0.0 **** 0.0
1334 H 29.653 2.303 78.787 H 0.0 **** 0.0
1335 H 31.072 3.334 79.085 H 0.0 **** 0.0
1336 C 93.628 23.291 94.953 C 0.0 **** 0.0
1337 H 94.162 22.602 94.3 H 0.0 **** 0.0
1338 H 93.135 22.73 95.747 H 0.0 **** 0.0
1339 H 92.881 23.835 94.375 H 0.0 **** 0.0
1340 H 94.333 23.997 95.391 H 0.0 **** 0.0
1341 C 54.029 30.998 88.491 C 0.0 **** 0.0
1342 H 54.017 30.778 89.559 H 0.0 **** 0.0
1343 H 53.863 32.064 88.338 H 0.0 **** 0.0
1344 H 53.24 30.431 87.995 H 0.0 **** 0.0
1345 H 54.996 30.717 88.073 H 0.0 **** 0.0
1346 C 45.037 76.182 43.265 C 0.0 **** 0.0
1347 H 45.184 75.19 42.838 H 0.0 **** 0.0
1348 H 45.978 76.541 43.683 H 0.0 **** 0.0
1349 H 44.286 76.13 44.053 H 0.0 **** 0.0
1350 H 44.7 76.867 42.487 H 0.0 **** 0.0
1351 C 80.164 0.825 78.795 C 0.0 **** 0.0
1352 H 81.219 0.817 79.068 H 0.0 **** 0.0
1353 H 79.601 0.217 79.505 H 0.0 **** 0.0
1354 H 80.045 0.416 77.792 H 0.0 **** 0.0
1355 H 79.79 1.849 78.817 H 0.0 **** 0.0
1356 C 43.587 79.976 75.801 C 0.0 **** 0.0
1357 H 43.079 80.854 76.2 H 0.0 **** 0.0
1358 H 44.117 79.467 76.606 H 0.0 **** 0.0
1359 H 44.299 80.285 75.036 H 0.0 **** 0.0
1360 H 42.853 79.3 75.363 H 0.0 **** 0.0
1361 C 21.481 90.018 16.631 C 0.0 **** 0.0
1362 H 20.49 89.802 17.029 H 0.0 **** 0.0
1363 H 21.696 91.08 16.749 H 0.0 **** 0.0
1364 H 21.513 89.755 15.573 H 0.0 **** 0.0
1365 H 22.225 89.434 17.173 H 0.0 **** 0.0
1366 C 54.326 41.793 24.961 C 0.0 **** 0.0
1367 H 54.484 41.709 26.036 H 0.0 **** 0.0
1368 H 55.158 42.338 24.514 H 0.0 **** 0.0
1369 H 53.397 42.329 24.771 H 0.0 **** 0.0
1370 H 54.267 40.797 24.524 H 0.0 **** 0.0
1371 C 46.958 1.262 52.438 C 0.0 **** 0.0
1372 H 46.999 2.043 51.679 H 0.0 **** 0.0
1373 H 46.128 1.459 53.117 H 0.0 **** 0.0
1374 H 47.892 1.251 52.998 H 0.0 **** 0.0
1375 H 46.812 0.295 51.956 H 0.0 **** 0.0
1376 C 37.745 48.383 66.067 C 0.0 **** 0.0
1377 H 37.633 48.161 67.128 H 0.0 **** 0.0
1378 H 37.371 49.387 65.865 H 0.0 **** 0.0
1379 H 37.178 47.659 65.482 H 0.0 **** 0.0
1380 H 38.799 48.326 65.794 H 0.0 **** 0.0
1381 C 68.07 53.37 61.839 C 0.0 **** 0.0
1382 H 68.908 54.063 61.905 H 0.0 **** 0.0
1383 H 67.135 53.931 61.82 H 0.0 **** 0.0
1384 H 68.078 52.708 62.705 H 0.0 **** 0.0
1385 H 68.158 52.778 60.928 H 0.0 **** 0.0
1386 C 82.814 2.912 24.241 C 0.0 **** 0.0
1387 H 83.699 2.82 23.612 H 0.0 **** 0.0
1388 H 82.155 3.678 23.832 H 0.0 **** 0.0
1389 H 83.114 3.192 25.251 H 0.0 **** 0.0
1390 H 82.288 1.958 24.27 H 0.0 **** 0.0
1391 C 41.883 34.053 8.06 C 0.0 **** 0.0
1392 H 41.716 34.073 9.137 H 0.0 **** 0.0
1393 H 41.461 34.952 7.61 H 0.0 **** 0.0
1394 H 41.403 33.172 7.634 H 0.0 **** 0.0
1395 H 42.954 34.015 7.86 H 0.0 **** 0.0
1396 C 86.835 71.282 51.766 C 0.0 **** 0.0
1397 H 87.02 70.578 50.955 H 0.0 **** 0.0
1398 H 87.786 71.637 52.163 H 0.0 **** 0.0
1399 H 86.273 70.785 52.557 H 0.0 **** 0.0
1400 H 86.26 72.128 51.389 H 0.0 **** 0.0
1401 C 84.773 26.966 28.262 C 0.0 **** 0.0
1402 H 84.179 27.86 28.068 H 0.0 **** 0.0
1403 H 85.507 27.18 29.04 H 0.0 **** 0.0
1404 H 85.286 26.666 27.349 H 0.0 **** 0.0
1405 H 84.117 26.16 28.592 H 0.0 **** 0.0
1406 C 21.909 76.731 69.62 C 0.0 **** 0.0
1407 H 21.653 76.706 68.561 H 0.0 **** 0.0
1408 H 21.539 75.827 70.104 H 0.0 **** 0.0
1409 H 21.451 77.605 70.084 H 0.0 **** 0.0
1410 H 22.992 76.787 69.731 H 0.0 **** 0.0
1411 C 45.311 78.124 67.773 C 0.0 **** 0.0
1412 H 45.46 77.829 68.812 H 0.0 **** 0.0
1413 H 45.048 79.181 67.73 H 0.0 **** 0.0
1414 H 44.506 77.53 67.339 H 0.0 **** 0.0
1415 H 46.23 77.954 67.212 H 0.0 **** 0.0
1416 C 42.665 67.499 78.316 C 0.0 **** 0.0
1417 H 43.171 67.403 77.356 H 0.0 **** 0.0
1418 H 43.372 67.299 79.121 H 0.0 **** 0.0
1419 H 41.844 66.783 78.367 H 0.0 **** 0.0
1420 H 42.272 68.51 78.42 H 0.0 **** 0.0
1421 C 26.286 70.847 34.647 C 0.0 **** 0.0
1422 H 26.314 71.415 33.717 H 0.0 **** 0.0
1423 H 27.286 70.81 35.08 H 0.0 **** 0.0
1424 H 25.941 69.834 34.442 H 0.0 **** 0.0
1425 H 25.603 71.329 35.346 H 0.0 **** 0.0
1426 C 33.41 97.355 94.063 C 0.0 **** 0.0
1427 H 33.735 97.25 93.028 H 0.0 **** 0.0
1428 H 32.876 98.299 94.183 H 0.0 **** 0.0
1429 H 34.279 97.343 94.72 H 0.0 **** 0.0
1430 H 32.748 96.528 94.322 H 0.0 **** 0.0
1431 C 90.717 11.59 26.187 C 0.0 **** 0.0
1432 H 90.763 11.567 27.276 H 0.0 **** 0.0
1433 H 90.125 12.449 25.867 H 0.0 **** 0.0
1434 H 90.253 10.673 25.824 H 0.0 **** 0.0
1435 H 91.726 11.673 25.783 H 0.0 **** 0.0
1436 C 62.495 96.341 6.312 C 0.0 **** 0.0
1437 H 62.491 96.344 7.402 H 0.0 **** 0.0
1438 H 61.591 96.827 5.945 H 0.0 **** 0.0
1439 H 62.528 95.313 5.952 H 0.0 **** 0.0
1440 H 63.37 96.881 5.951 H 0.0 **** 0.0
1441 C 14.508 91.582 88.334 C 0.0 **** 0.0
1442 H 14.077 91.95 89.266 H 0.0 **** 0.0
1443 H 15.367 92.197 88.064 H 0.0 **** 0.0
1444 H 13.76 91.635 87.543 H 0.0 **** 0.0
1445 H 14.827 90.548 88.465 H 0.0 **** 0.0
1446 C 43.436 45.154 34.07 C 0.0 **** 0.0
1447 H 44.383 45.031 34.594 H 0.0 **** 0.0
1448 H 43.625 45.524 33.061 H 0.0 **** 0.0
1449 H 42.813 45.869 34.608 H 0.0 **** 0.0
1450 H 42.923 44.194 34.015 H 0.0 **** 0.0
1451 C 73.315 9.123 18.393 C 0.0 **** 0.0
1452 H 72.339 9.453 18.748 H 0.0 **** 0.0
1453 H 73.239 8.822 17.348 H 0.0 **** 0.0
1454 H 73.652 8.276 18.991 H 0.0 **** 0.0
1455 H 74.03 9.94 18.485 H 0.0 **** 0.0
1456 C 40.842 36.488 69.617 C 0.0 **** 0.0
1457 H 40.831 37.192 70.449 H 0.0 **** 0.0
1458 H 39.819 36.218 69.355 H 0.0 **** 0.0
1459 H 41.391 35.592 69.907 H 0.0 **** 0.0
1460 H 41.328 36.95 68.757 H 0.0 **** 0.0
1461 C 86.27 80.91 1.486 C 0.0 **** 0.0
1462 H 85.401 81.256 2.046 H 0.0 **** 0.0
1463 H 86.482 81.609 0.677 H 0.0 **** 0.0
1464 H 86.065 79.923 1.071 H 0.0 **** 0.0
1465 H 87.131 80.852 2.152 H 0.0 **** 0.0
1466 C 78.048 36.192 63.06 C 0.0 **** 0.0
1467 H 77.971 37.029 62.366 H 0.0 **** 0.0
1468 H 78.789 36.422 63.826 H 0.0 **** 0.0
1469 H 78.352 35.297 62.516 H 0.0 **** 0.0
1470 H 77.08 36.02 63.53 H 0.0 **** 0.0
1471 C 80.183 42.568 56.327 C 0.0 **** 0.0
1472 H 81.237 42.364 56.138 H 0.0 **** 0.0
1473 H 79.859 42.018 57.21 H 0.0 **** 0.0
1474 H 79.592 42.255 55.466 H 0.0 **** 0.0
1475 H 80.045 43.637 56.493 H 0.0 **** 0.0
1476 C 97.932 7.877 56.525 C 0.0 **** 0.0
1477 H 96.973 7.837 56.009 H 0.0 **** 0.0
1478 H 98.039 8.843 57.019 H 0.0 **** 0.0
1479 H 98.739 7.746 55.803 H 0.0 **** 0.0
1480 H 97.978 7.081 57.269 H 0.0 **** 0.0
1481 C 75.574 45.912 48.603 C 0.0 **** 0.0
1482 H 75.585 45.788 49.686 H 0.0 **** 0.0
1483 H 75.172 45.012 48.139 H 0.0 **** 0.0
1484 H 76.59 46.083 48.246 H 0.0 **** 0.0
1485 H 74.949 46.766 48.342 H 0.0 **** 0.0
1486 C 20.138 21.767 29.037 C 0.0 **** 0.0
1487 H 20.824 22.252 29.733 H 0.0 **** 0.0
1488 H 19.524 21.046 29.576 H 0.0 **** 0.0
1489 H 20.709 21.253 28.264 H 0.0 **** 0.0
1490 H 19.497 22.519 28.577 H 0.0 **** 0.0
1491 C 92.37 60.428 15.668 C 0.0 **** 0.0
1492 H 92.396 59.492 16.225 H 0.0 **** 0.0
1493 H 93.174 61.078 16.014 H 0.0 **** 0.0
1494 H 91.41 60.919 15.827 H 0.0 **** 0.0
1495 H 92.501 60.222 14.606 H 0.0 **** 0.0
1496 C 12.772 85.689 55.876 C 0.0 **** 0.0
1497 H 12.122 86.415 55.387 H 0.0 **** 0.0
1498 H 12.755 85.855 56.954 H 0.0 **** 0.0
1499 H 13.79 85.806 55.506 H 0.0 **** 0.0
1500 H 12.419 84.681 55.658 H 0.0 **** 0.0
1501 C 85.156 91.883 87.197 C 0.0 **** 0.0
1502 H 84.314 91.841 86.506 H 0.0 **** 0.0
1503 H 85.98 92.426 86.733 H 0.0 **** 0.0
1504 H 85.478 90.87 87.439 H 0.0 **** 0.0
1505 H 84.851 92.396 88.11 H 0.0 **** 0.0
1506 C 64.388 11.562 70.162 C 0.0 **** 0.0
1507 H 64.392 10.554 70.576 H 0.0 **** 0.0
1508 H 63.766 12.207 70.782 H 0.0 **** 0.0
1509 H 63.988 11.537 69.148 H 0.0 **** 0.0
1510 H 65.407 11.949 70.141 H 0.0 **** 0.0
1511 C 19.791 39.03 57.67 C 0.0 **** 0.0
1512 H 19.896 38.864 58.742 H 0.0 **** 0.0
1513 H 19.137 38.267 57.247 H 0.0 **** 0.0
1514 H 20.771 38.974 57.196 H 0.0 **** 0.0
1515 H 19.359 40.016 57.496 H 0.0 **** 0.0
1516 C 12.369 67.057 44.012 C 0.0 **** 0.0
1517 H 12.063 66.861 45.039 H 0.0 **** 0.0
1518 H 13.36 67.512 44.009 H 0.0 **** 0.0
1519 H 11.656 67.736 43.544 H 0.0 **** 0.0
1520 H 12.397 66.12 43.456 H 0.0 **** 0.0
1521 C 64.557 49.345 54.951 C 0.0 **** 0.0
1522 H 64.475 50.143 55.688 H 0.0 **** 0.0
1523 H 64.442 49.762 53.95 H 0.0 **** 0.0
1524 H 63.777 48.605 55.128 H 0.0 **** 0.0
1525 H 65.535 48.87 55.037 H 0.0 **** 0.0
1526 C 74.301 84.334 43.256 C 0.0 **** 0.0
1527 H 74.201 84.589 44.311 H 0.0 **** 0.0
1528 H 75.323 84.009 43.056 H 0.0 **** 0.0
1529 H 74.072 85.209 42.647 H 0.0 **** 0.0
1530 H 73.609 83.528 43.01 H 0.0 **** 0.0
1531 C 56.379 74.965 5.844 C 0.0 **** 0.0
1532 H 56.363 74.958 6.933 H 0.0 **** 0.0
1533 H 56.125 73.973 5.471 H 0.0 **** 0.0
1534 H 57.374 75.24 5.496 H 0.0 **** 0.0
1535 H 55.652 75.689 5.475 H 0.0 **** 0.0
1536 C 84.595 68.586 86.702 C 0.0 **** 0.0
1537 H 84.503 67.846 87.497 H 0.0 **** 0.0
1538 H 84.633 69.584 87.138 H 0.0 **** 0.0
1539 H 83.735 68.512 86.036 H 0.0 **** 0.0
1540 H 85.509 68.4 86.138 H 0.0 **** 0.0
1541 C 3.562 73.846 29.958 C 0.0 **** 0.0
1542 H 3.907 73.799 30.991 H 0.0 **** 0.0
1543 H 4.321 73.418 29.302 H 0.0 **** 0.0
1544 H 3.387 74.885 29.68 H 0.0 **** 0.0
1545 H 2.635 73.282 29.859 H 0.0 **** 0.0
1546 C 90.414 52.399 2.713 C 0.0 **** 0.0
1547 H 90.465 52.424 3.801 H 0.0 **** 0.0
1548 H 91.22 51.776 2.325 H 0.0 **** 0.0
1549 H 90.517 53.411 2.321 H 0.0 **** 0.0
1550 H 89.454 51.986 2.403 H 0.0 **** 0.0
1551 C 25.719 37.114 63.999 C 0.0 **** 0.0
1552 H 24.977 37.138 64.797 H 0.0 **** 0.0
1553 H 26.513 36.415 64.262 H 0.0 **** 0.0
1554 H 26.141 38.111 63.867 H 0.0 **** 0.0
1555 H 25.244 36.795 63.071 H 0.0 **** 0.0
1556 C 28.556 71.297 63.022 C 0.0 **** 0.0
1557 H 27.968 70.657 63.679 H 0.0 **** 0.0
1558 H 29.107 70.679 62.312 H 0.0 **** 0.0
1559 H 29.258 71.88 63.617 H 0.0 **** 0.0
1560 H 27.892 71.97 62.48 H 0.0 **** 0.0
1561 C 62.243 51.914 55.958 C 0.0 **** 0.0
1562 H 63.182 52.459 56.061 H 0.0 **** 0.0
1563 H 62.042 51.734 54.902 H 0.0 **** 0.0
1564 H 61.433 52.503 56.388 H 0.0 **** 0.0
1565 H 62.317 50.961 56.482 H 0.0 **** 0.0
1566 C 45.365 83.299 82.527 C 0.0 **** 0.0
1567 H 45.949 83.491 81.627 H 0.0 **** 0.0
1568 H 44.824 84.203 82.808 H 0.0 **** 0.0
1569 H 46.033 83.009 83.338 H 0.0 **** 0.0
1570 H 44.656 82.495 82.335 H 0.0 **** 0.0
1571 C 6.793 38.998 60.322 C 0.0 **** 0.0
1572 H 5.768 39.102 60.675 H 0.0 **** 0.0
1573 H 6.844 39.273 59.268 H 0.0 **** 0.0
1574 H 7.117 37.965 60.444 H 0.0 **** 0.0
1575 H 7.445 39.654 60.9 H 0.0 **** 0.0
1576 C 11.071 56.177 34.276 C 0.0 **** 0.0
1577 H 10.753 57.173 34.582 H 0.0 **** 0.0
1578 H 12.16 56.126 34.279 H 0.0 **** 0.0
1579 H 10.7 55.969 33.272 H 0.0 **** 0.0
1580 H 10.67 55.439 34.971 H 0.0 **** 0.0
1581 C 70.805 83.003 21.428 C 0.0 **** 0.0
1582 H 70.432 83.26 20.437 H 0.0 **** 0.0
1583 H 71.186 81.982 21.42 H 0.0 **** 0.0
1584 H 69.994 83.083 22.153 H 0.0 **** 0.0
1585 H 71.606 83.688 21.703 H 0.0 **** 0.0
1586 C 79.467 86.372 91.582 C 0.0 **** 0.0
1587 H 78.436 86.431 91.933 H 0.0 **** 0.0
1588 H 80.01 85.636 92.175 H 0.0 **** 0.0
1589 H 79.942 87.347 91.685 H 0.0 **** 0.0
1590 H 79.476 86.072 90.534 H 0.0 **** 0.0
1591 C 94.403 33.263 11.188 C 0.0 **** 0.0
1592 H 94.342 32.647 10.291 H 0.0 **** 0.0
1593 H 94.515 34.309 10.903 H 0.0 **** 0.0
1594 H 95.262 32.954 11.783 H 0.0 **** 0.0
1595 H 93.492 33.141 11.775 H 0.0 **** 0.0
1596 C 58.351 6.631 42.111 C 0.0 **** 0.0
1597 H 58.505 6.479 43.179 H 0.0 **** 0.0
1598 H 59.301 6.522 41.587 H 0.0 **** 0.0
1599 H 57.955 7.633 41.941 H 0.0 **** 0.0
1600 H 57.642 5.892 41.737 H 0.0 **** 0.0
1601 C 25.531 89.859 20.695 C 0.0 **** 0.0
1602 H 25.907 90.317 19.78 H 0.0 **** 0.0
1603 H 26.37 89.525 21.305 H 0.0 **** 0.0
1604 H 24.902 89.006 20.442 H 0.0 **** 0.0
1605 H 24.944 90.59 21.252 H 0.0 **** 0.0
1606 C 98.385 10.495 30.063 C 0.0 **** 0.0
1607 H 99.0 10.235 30.924 H 0.0 **** 0.0
1608 H 97.958 9.587 29.635 H 0.0 **** 0.0
1609 H 99.0 10.995 29.315 H 0.0 **** 0.0
1610 H 97.582 11.161 30.378 H 0.0 **** 0.0
1611 C 24.377 38.127 68.782 C 0.0 **** 0.0
1612 H 24.394 38.181 69.87 H 0.0 **** 0.0
1613 H 25.392 38.23 68.398 H 0.0 **** 0.0
1614 H 23.755 38.932 68.389 H 0.0 **** 0.0
1615 H 23.966 37.166 68.472 H 0.0 **** 0.0
1616 C 1.45 19.481 53.723 C 0.0 **** 0.0
1617 H 1.356 19.397 54.806 H 0.0 **** 0.0
1618 H 0.547 19.935 53.315 H 0.0 **** 0.0
1619 H 1.585 18.489 53.292 H 0.0 **** 0.0
1620 H 2.312 20.103 53.481 H 0.0 **** 0.0
1621 C 10.666 79.573 58.848 C 0.0 **** 0.0
1622 H 10.511 79.793 57.792 H 0.0 **** 0.0
1623 H 10.494 78.512 59.028 H 0.0 **** 0.0
1624 H 9.97 80.161 59.447 H 0.0 **** 0.0
1625 H 11.689 79.828 59.125 H 0.0 **** 0.0
1626 C 89.593 15.09 35.68 C 0.0 **** 0.0
1627 H 89.684 15.311 34.617 H 0.0 **** 0.0
1628 H 88.691 15.559 36.072 H 0.0 **** 0.0
1629 H 90.464 15.48 36.207 H 0.0 **** 0.0
1630 H 89.534 14.011 35.823 H 0.0 **** 0.0
1631 C 82.921 76.996 36.497 C 0.0 **** 0.0
1632 H 83.48 76.296 35.875 H 0.0 **** 0.0
1633 H 82.988 76.688 37.54 H 0.0 **** 0.0
1634 H 81.877 77.005 36.185 H 0.0 **** 0.0
1635 H 83.342 77.996 36.385 H 0.0 **** 0.0
1636 C 19.562 18.403 8.857 C 0.0 **** 0.0
1637 H 20.225 18.541 8.004 H 0.0 **** 0.0
1638 H 18.676 17.851 8.543 H 0.0 **** 0.0
1639 H 19.266 19.376 9.248 H 0.0 **** 0.0
1640 H 20.083 17.842 9.634 H 0.0 **** 0.0
1641 C 7.724 78.614 56.001 C 0.0 **** 0.0
1642 H 6.711 78.889 56.297 H 0.0 **** 0.0
1643 H 8.183 79.444 55.463 H 0.0 **** 0.0
1644 H 7.688 77.737 55.355 H 0.0 **** 0.0
1645 H 8.313 78.387 56.89 H 0.0 **** 0.0
1646 C 25.514 56.338 75.159 C 0.0 **** 0.0
1647 H 25.447 56.257 76.243 H 0.0 **** 0.0
1648 H 24.605 55.939 74.708 H 0.0 **** 0.0
1649 H 26.375 55.771 74.804 H 0.0 **** 0.0
1650 H 25.629 57.386 74.88 H 0.0 **** 0.0
1651 C 74.919 16.603 92.729 C 0.0 **** 0.0
1652 H 75.659 15.84 92.973 H 0.0 **** 0.0
1653 H 73.941 16.291 93.096 H 0.0 **** 0.0
1654 H 74.876 16.734 91.647 H 0.0 **** 0.0
1655 H 75.201 17.545 93.198 H 0.0 **** 0.0
1656 C 72.657 39.826 15.47 C 0.0 **** 0.0
1657 H 71.916 40.245 16.152 H 0.0 **** 0.0
1658 H 72.444 40.159 14.454 H 0.0 **** 0.0
1659 H 72.615 38.738 15.512 H 0.0 **** 0.0
1660 H 73.651 40.163 15.762 H 0.0 **** 0.0
1661 C 43.686 39.196 12.727 C 0.0 **** 0.0
1662 H 43.877 39.219 13.8 H 0.0 **** 0.0
1663 H 43.241 40.141 12.417 H 0.0 **** 0.0
1664 H 43.002 38.379 12.498 H 0.0 **** 0.0
1665 H 44.625 39.043 12.195 H 0.0 **** 0.0
1666 C 82.283 49.029 50.62 C 0.0 **** 0.0
1667 H 83.026 48.969 49.824 H 0.0 **** 0.0
1668 H 82.503 48.278 51.379 H 0.0 **** 0.0
1669 H 81.291 48.848 50.205 H 0.0 **** 0.0
1670 H 82.313 50.021 51.07 H 0.0 **** 0.0
1671 C 44.923 30.696 93.93 C 0.0 **** 0.0
1672 H 44.834 29.648 94.218 H 0.0 **** 0.0
1673 H 44.42 31.32 94.669 H 0.0 **** 0.0
1674 H 44.462 30.845 92.954 H 0.0 **** 0.0
1675 H 45.977 30.97 93.88 H 0.0 **** 0.0
1676 C 55.15 42.272 37.409 C 0.0 **** 0.0
1677 H 55.805 42.33 36.539 H 0.0 **** 0.0
1678 H 55.706 41.869 38.256 H 0.0 **** 0.0
1679 H 54.306 41.62 37.185 H 0.0 **** 0.0
1680 H 54.784 43.268 37.655 H 0.0 **** 0.0
1681 C 62.306 11.958 54.29 C 0.0 **** 0.0
1682 H 61.428 11.54 54.783 H 0.0 **** 0.0
1683 H 63.103 12.093 55.022 H 0.0 **** 0.0
1684 H 62.051 12.921 53.848 H 0.0 **** 0.0
1685 H 62.642 11.276 53.509 H 0.0 **** 0.0
1686 C 29.009 24.909 20.852 C 0.0 **** 0.0
1687 H 29.119 24.059 21.526 H 0.0 **** 0.0
1688 H 29.814 24.896 20.117 H 0.0 **** 0.0
1689 H 29.055 25.835 21.426 H 0.0 **** 0.0
1690 H 28.049 24.845 20.341 H 0.0 **** 0.0
1691 C 34.471 74.12 91.948 C 0.0 **** 0.0
1692 H 34.581 73.958 90.876 H 0.0 **** 0.0
1693 H 33.44 74.395 92.169 H 0.0 **** 0.0
1694 H 35.138 74.922 92.265 H 0.0 **** 0.0
1695 H 34.726 73.204 92.482 H 0.0 **** 0.0
1696 C 56.175 10.995 90.865 C 0.0 **** 0.0
1697 H 56.227 11.951 91.387 H 0.0 **** 0.0
1698 H 55.454 10.348 91.364 H 0.0 **** 0.0
1699 H 57.157 10.522 90.874 H 0.0 **** 0.0
1700 H 55.861 11.161 89.834 H 0.0 **** 0.0
1701 C 55.692 72.122 59.748 C 0.0 **** 0.0
1702 H 54.65 72.438 59.718 H 0.0 **** 0.0
1703 H 55.932 71.573 58.837 H 0.0 **** 0.0
1704 H 55.852 71.479 60.614 H 0.0 **** 0.0
1705 H 56.335 72.999 59.824 H 0.0 **** 0.0
1706 C 39.679 61.004 12.934 C 0.0 **** 0.0
1707 H 39.922 61.788 12.216 H 0.0 **** 0.0
1708 H 40.548 60.803 13.56 H 0.0 **** 0.0
1709 H 39.398 60.097 12.4 H 0.0 **** 0.0
1710 H 38.848 61.33 13.559 H 0.0 **** 0.0
1711 C 32.86 55.637 55.035 C 0.0 **** 0.0
1712 H 31.829 55.847 54.749 H 0.0 **** 0.0
1713 H 33.187 56.368 55.775 H 0.0 **** 0.0
1714 H 33.501 55.699 54.155 H 0.0 **** 0.0
1715 H 32.922 54.636 55.461 H 0.0 **** 0.0
1716 C 84.418 74.381 5.768 C 0.0 **** 0.0
1717 H 85.013 73.487 5.955 H 0.0 **** 0.0
1718 H 85.078 75.21 5.51 H 0.0 **** 0.0
1719 H 83.851 74.633 6.664 H 0.0 **** 0.0
1720 H 83.73 74.194 4.943 H 0.0 **** 0.0
1721 C 67.736 94.997 59.565 C 0.0 **** 0.0
1722 H 67.975 94.977 60.629 H 0.0 **** 0.0
1723 H 68.528 94.497 59.006 H 0.0 **** 0.0
1724 H 67.652 96.031 59.231 H 0.0 **** 0.0
1725 H 66.791 94.482 59.396 H 0.0 **** 0.0
1726 C 22.564 31.945 18.731 C 0.0 **** 0.0
1727 H 23.545 31.684 18.333 H 0.0 **** 0.0
1728 H 21.977 32.436 17.954 H 0.0 **** 0.0
1729 H 22.684 32.62 19.578 H 0.0 **** 0.0
1730 H 22.052 31.04 19.056 H 0.0 **** 0.0
1731 C 38.57 39.134 80.374 C 0.0 **** 0.0
1732 H 38.535 39.156 79.285 H 0.0 **** 0.0
1733 H 38.412 38.112 80.721 H 0.0 **** 0.0
1734 H 37.788 39.779 80.775 H 0.0 **** 0.0
1735 H 39.543 39.487 80.713 H 0.0 **** 0.0
1736 C 43.401 23.852 67.692 C 0.0 **** 0.0
1737 H 42.771 23.848 66.803 H 0.0 **** 0.0
1738 H 43.518 22.832 68.059 H 0.0 **** 0.0
1739 H 42.934 24.464 68.464 H 0.0 **** 0.0
1740 H 44.379 24.264 67.443 H 0.0 **** 0.0
1741 C 54.987 78.357 80.866 C 0.0 **** 0.0
1742 H 53.909 78.326 81.02 H 0.0 **** 0.0
1743 H 55.479 78.644 81.796 H 0.0 **** 0.0
1744 H 55.222 79.085 80.09 H 0.0 **** 0.0
1745 H 55.338 77.372 80.558 H 0.0 **** 0.0
1746 C 55.79 26.181 92.318 C 0.0 **** 0.0
1747 H 56.737 26.168 92.856 H 0.0 **** 0.0
1748 H 55.778 27.022 91.624 H 0.0 **** 0.0
1749 H 54.97 26.284 93.029 H 0.0 **** 0.0
1750 H 55.674 25.25 91.762 H 0.0 **** 0.0
1751 C 53.704 4.387 12.76 C 0.0 **** 0.0
1752 H 53.915 4.293 11.695 H 0.0 **** 0.0
1753 H 54.587 4.769 13.273 H 0.0 **** 0.0
1754 H 53.443 3.409 13.166 H 0.0 **** 0.0
1755 H 52.871 5.075 12.906 H 0.0 **** 0.0
1756 C 6.584 43.467 30.4 C 0.0 **** 0.0
1757 H 5.651 43.101 30.829 H 0.0 **** 0.0
1758 H 6.792 42.932 29.473 H 0.0 **** 0.0
1759 H 7.398 43.302 31.106 H 0.0 **** 0.0
1760 H 6.493 44.533 30.192 H 0.0 **** 0.0
1761 C 38.727 36.932 91.823 C 0.0 **** 0.0
1762 H 38.095 37.018 90.94 H 0.0 **** 0.0
1763 H 38.649 35.924 92.23 H 0.0 **** 0.0
1764 H 38.403 37.653 92.573 H 0.0 **** 0.0
1765 H 39.763 37.134 91.549 H 0.0 **** 0.0
1766 C 10.858 94.195 60.323 C 0.0 **** 0.0
1767 H 11.594 94.195 61.127 H 0.0 **** 0.0
1768 H 11.321 93.83 59.406 H 0.0 **** 0.0
1769 H 10.492 95.21 60.167 H 0.0 **** 0.0
1770 H 10.025 93.546 60.593 H 0.0 **** 0.0
1771 C 61.701 52.972 41.263 C 0.0 **** 0.0
1772 H 61.053 53.412 42.022 H 0.0 **** 0.0
1773 H 62.69 53.427 41.323 H 0.0 **** 0.0
1774 H 61.277 53.151 40.275 H 0.0 **** 0.0
1775 H 61.783 51.899 41.434 H 0.0 **** 0.0
1776 C 84.67 38.509 81.717 C 0.0 **** 0.0
1777 H 85.325 38.29 82.56 H 0.0 **** 0.0
1778 H 84.97 39.452 81.259 H 0.0 **** 0.0
1779 H 83.641 38.586 82.067 H 0.0 **** 0.0
1780 H 84.745 37.708 80.981 H 0.0 **** 0.0
1781 C 97.5 63.547 72.502 C 0.0 **** 0.0
1782 H 97.13 64.502 72.129 H 0.0 **** 0.0
1783 H 98.308 63.194 71.859 H 0.0 **** 0.0
1784 H 96.69 62.818 72.5 H 0.0 **** 0.0
1785 H 97.873 63.674 73.518 H 0.0 **** 0.0
1786 C 14.727 53.528 84.792 C 0.0 **** 0.0
1787 H 14.251 53.141 85.694 H 0.0 **** 0.0
1788 H 14.692 54.617 84.802 H 0.0 **** 0.0
1789 H 14.198 53.155 83.915 H 0.0 **** 0.0
1790 H 15.765 53.197 84.759 H 0.0 **** 0.0
1791 C 91.566 92.691 47.977 C 0.0 **** 0.0
1792 H 92.144 92.443 47.086 H 0.0 **** 0.0
1793 H 91.788 91.971 48.765 H 0.0 **** 0.0
1794 H 90.503 92.656 47.74 H 0.0 **** 0.0
1795 H 91.831 93.693 48.314 H 0.0 **** 0.0
1796 C 38.294 11.446 42.909 C 0.0 **** 0.0
1797 H 38.331 11.432 41.82 H 0.0 **** 0.0
1798 H 39.306 11.527 43.306 H 0.0 **** 0.0
1799 H 37.835 10.524 43.268 H 0.0 **** 0.0
1800 H 37.704 12.299 43.242 H 0.0 **** 0.0
1801 C 55.037 61.158 59.486 C 0.0 **** 0.0
1802 H 54.294 61.908 59.216 H 0.0 **** 0.0
1803 H 54.906 60.878 60.532 H 0.0 **** 0.0
1804 H 56.036 61.569 59.343 H 0.0 **** 0.0
1805 H 54.912 60.278 58.855 H 0.0 **** 0.0
1806 C 45.481 57.287 71.366 C 0.0 **** 0.0
1807 H 44.744 56.603 71.786 H 0.0 **** 0.0
1808 H 45.358 57.332 70.283 H 0.0 **** 0.0
1809 H 46.484 56.932 71.603 H 0.0 **** 0.0
1810 H 45.337 58.28 71.79 H 0.0 **** 0.0
1811 C 47.063 13.714 65.585 C 0.0 **** 0.0
1812 H 47.5 13.064 66.344 H 0.0 **** 0.0
1813 H 47.569 13.55 64.633 H 0.0 **** 0.0
1814 H 47.182 14.755 65.886 H 0.0 **** 0.0
1815 H 46.003 13.485 65.478 H 0.0 **** 0.0
1816 C 70.323 46.815 8.502 C 0.0 **** 0.0
1817 H 69.771 45.999 8.967 H 0.0 **** 0.0
1818 H 69.656 47.664 8.35 H 0.0 **** 0.0
1819 H 70.718 46.486 7.541 H 0.0 **** 0.0
1820 H 71.147 47.112 9.151 H 0.0 **** 0.0
1821 C 17.099 23.16 72.243 C 0.0 **** 0.0
1822 H 17.112 22.257 72.854 H 0.0 **** 0.0
1823 H 16.452 23.904 72.708 H 0.0 **** 0.0
1824 H 16.721 22.919 71.249 H 0.0 **** 0.0
1825 H 18.11 23.557 72.161 H 0.0 **** 0.0
1826 C 61.442 93.736 53.293 C 0.0 **** 0.0
1827 H 61.447 94.713 53.778 H 0.0 **** 0.0
1828 H 61.791 93.839 52.266 H 0.0 **** 0.0
1829 H 60.428 93.336 53.295 H 0.0 **** 0.0
1830 H 62.101 93.058 53.836 H 0.0 **** 0.0
1831 C 75.355 90.519 18.693 C 0.0 **** 0.0
1832 H 75.308 90.848 19.73 H 0.0 **** 0.0
1833 H 75.899 89.575 18.636 H 0.0 **** 0.0
1834 H 75.87 91.271 18.096 H 0.0 **** 0.0
1835 H 74.345 90.38 18.309 H 0.0 **** 0.0
1836 C 19.126 4.77 39.17 C 0.0 **** 0.0
1837 H 19.331 5.758 39.581 H 0.0 **** 0.0
1838 H 19.989 4.428 38.598 H 0.0 **** 0.0
1839 H 18.254 4.822 38.517 H 0.0 **** 0.0
1840 H 18.929 4.072 39.984 H 0.0 **** 0.0
1841 C 39.618 16.094 83.949 C 0.0 **** 0.0
1842 H 40.634 16.431 84.155 H 0.0 **** 0.0
1843 H 39.444 15.139 84.444 H 0.0 **** 0.0
1844 H 39.485 15.976 82.873 H 0.0 **** 0.0
1845 H 38.908 16.833 84.323 H 0.0 **** 0.0
1846 C 51.385 70.571 30.182 C 0.0 **** 0.0
1847 H 51.722 69.999 29.317 H 0.0 **** 0.0
1848 H 51.928 71.515 30.225 H 0.0 **** 0.0
1849 H 51.575 70.0 31.091 H 0.0 **** 0.0
1850 H 50.317 70.768 30.093 H 0.0 **** 0.0
1851 C 19.91 83.539 81.385 C 0.0 **** 0.0
1852 H 19.595 82.511 81.203 H 0.0 **** 0.0
1853 H 19.365 83.939 82.239 H 0.0 **** 0.0
1854 H 19.701 84.144 80.503 H 0.0 **** 0.0
1855 H 20.98 83.559 81.594 H 0.0 **** 0.0
1856 C 34.879 1.932 91.506 C 0.0 **** 0.0
1857 H 34.716 1.813 90.435 H 0.0 **** 0.0
1858 H 34.081 1.43 92.053 H 0.0 **** 0.0
1859 H 34.881 2.993 91.758 H 0.0 **** 0.0
1860 H 35.839 1.493 91.778 H 0.0 **** 0.0
1861 C 48.379 53.318 72.907 C 0.0 **** 0.0
1862 H 47.413 53.357 72.403 H 0.0 **** 0.0
1863 H 49.109 53.892 72.337 H 0.0 **** 0.0
1864 H 48.708 52.282 72.981 H 0.0 **** 0.0
1865 H 48.283 53.742 73.907 H 0.0 **** 0.0
1866 C 64.634 20.048 24.413 C 0.0 **** 0.0
1867 H 63.735 19.447 24.274 H 0.0 **** 0.0
1868 H 64.498 21.02 23.94 H 0.0 **** 0.0
1869 H 65.484 19.538 23.961 H 0.0 **** 0.0
1870 H 64.817 20.184 25.479 H 0.0 **** 0.0
1871 C 40.858 40.858 91.737 C 0.0 **** 0.0
1872 H 40.806 40.162 92.574 H 0.0 **** 0.0
1873 H 39.935 40.802 91.16 H 0.0 **** 0.0
1874 H 41.703 40.597 91.1 H 0.0 **** 0.0
1875 H 40.989 41.872 92.116 H 0.0 **** 0.0
1876 C 87.431 69.543 21.802 C 0.0 **** 0.0
1877 H 86.945 70.387 21.313 H 0.0 **** 0.0
1878 H 88.463 69.468 21.457 H 0.0 **** 0.0
1879 H 86.898 68.625 21.557 H 0.0 **** 0.0
1880 H 87.419 69.693 22.882 H 0.0 **** 0.0
1881 C 88.285 1.881 23.404 C 0.0 **** 0.0
1882 H 88.357 1.488 24.418 H 0.0 **** 0.0
1883 H 87.383 2.486 23.313 H 0.0 **** 0.0
1884 H 88.242 1.054 22.696 H 0.0 **** 0.0
1885 H 89.16 2.496 23.19 H 0.0 **** 0.0
1886 C 4.176 63.506 55.889 C 0.0 **** 0.0
1887 H 3.971 63.186 56.911 H 0.0 **** 0.0
1888 H 4.495 62.648 55.297 H 0.0 **** 0.0
1889 H 4.965 64.258 55.896 H 0.0 **** 0.0
1890 H 3.272 63.932 55.454 H 0.0 **** 0.0
1891 C 69.685 14.594 64.038 C 0.0 **** 0.0
1892 H 68.931 14.627 63.252 H 0.0 **** 0.0
1893 H 70.655 14.355 63.6 H 0.0 **** 0.0
1894 H 69.417 13.83 64.767 H 0.0 **** 0.0
1895 H 69.738 15.565 64.531 H 0.0 **** 0.0
1896 C 11.046 94.27 35.579 C 0.0 **** 0.0
1897 H 11.95 94.575 36.105 H 0.0 **** 0.0
1898 H 11.179 94.424 34.508 H 0.0 **** 0.0
1899 H 10.204 94.867 35.929 H 0.0 **** 0.0
1900 H 10.85 93.216 35.773 H 0.0 **** 0.0
1901 C 85.2 43.286 66.543 C 0.0 **** 0.0
1902 H 84.477 43.635 67.28 H 0.0 **** 0.0
1903 H 85.915 42.618 67.024 H 0.0 **** 0.0
1904 H 85.728 44.14 66.119 H 0.0 **** 0.0
1905 H 84.679 42.75 65.749 H 0.0 **** 0.0
1906 C 24.572 64.195 1.273 C 0.0 **** 0.0
1907 H 25.595 63.82 1.31 H 0.0 **** 0.0
1908 H 23.885 63.405 1.577 H 0.0 **** 0.0
1909 H 24.337 64.509 0.255 H 0.0 **** 0.0
1910 H 24.471 65.045 1.948 H 0.0 **** 0.0
1911 C 35.323 4.008 38.18 C 0.0 **** 0.0
1912 H 34.429 4.235 38.762 H 0.0 **** 0.0
1913 H 35.327 4.611 37.272 H 0.0 **** 0.0
1914 H 35.325 2.951 37.915 H 0.0 **** 0.0
1915 H 36.209 4.236 38.772 H 0.0 **** 0.0
1916 C 3.234 45.467 5.238 C 0.0 **** 0.0
1917 H 2.299 45.577 5.787 H 0.0 **** 0.0
1918 H 3.194 46.069 4.329 H 0.0 **** 0.0
1919 H 3.38 44.419 4.974 H 0.0 **** 0.0
1920 H 4.063 45.803 5.861 H 0.0 **** 0.0
1921 C 28.268 41.632 57.175 C 0.0 **** 0.0
1922 H 28.6 42.42 57.851 H 0.0 **** 0.0
1923 H 27.372 41.16 57.579 H 0.0 **** 0.0
1924 H 29.057 40.887 57.07 H 0.0 **** 0.0
1925 H 28.043 42.063 56.199 H 0.0 **** 0.0
1926 C 88.505 65.03 42.512 C 0.0 **** 0.0
1927 H 89.158 65.687 43.088 H 0.0 **** 0.0
1928 H 87.536 65.51 42.378 H 0.0 **** 0.0
1929 H 88.375 64.089 43.047 H 0.0 **** 0.0
1930 H 88.953 64.836 41.538 H 0.0 **** 0.0
1931 C 90.819 74.998 67.523 C 0.0 **** 0.0
1932 H 89.916 74.806 66.944 H 0.0 **** 0.0
1933 H 90.839 74.341 68.393 H 0.0 **** 0.0
1934 H 90.826 76.037 67.852 H 0.0 **** 0.0
1935 H 91.695 74.808 66.903 H 0.0 **** 0.0
1936 C 62.062 73.323 51.023 C 0.0 **** 0.0
1937 H 60.992 73.177 50.877 H 0.0 **** 0.0
1938 H 62.608 72.843 50.21 H 0.0 **** 0.0
1939 H 62.363 72.882 51.973 H 0.0 **** 0.0
1940 H 62.285 74.39 51.03 H 0.0 **** 0.0
1941 C 42.459 57.749 17.37 C 0.0 **** 0.0
1942 H 42.021 58.735 17.523 H 0.0 **** 0.0
1943 H 42.413 57.182 18.3 H 0.0 **** 0.0
1944 H 43.499 57.858 17.061 H 0.0 **** 0.0
1945 H 41.904 57.221 16.594 H 0.0 **** 0.0
1946 C 31.313 47.407 80.016 C 0.0 **** 0.0
1947 H 30.853 47.694 79.07 H 0.0 **** 0.0
1948 H 31.663 48.3 80.535 H 0.0 **** 0.0
1949 H 32.157 46.745 79.822 H 0.0 **** 0.0
1950 H 30.58 46.89 80.634 H 0.0 **** 0.0
1951 C 42.912 72.237 78.066 C 0.0 **** 0.0
1952 H 42.596 72.988 77.342 H 0.0 **** 0.0
1953 H 43.477 72.718 78.865 H 0.0 **** 0.0
1954 H 43.539 71.496 77.572 H 0.0 **** 0.0
1955 H 42.034 71.747 78.487 H 0.0 **** 0.0
1956 C 54.948 62.491 55.723 C 0.0 **** 0.0
1957 H 54.991 63.484 55.275 H 0.0 **** 0.0
1958 H 54.838 62.584 56.803 H 0.0 **** 0.0
1959 H 55.868 61.951 55.496 H 0.0 **** 0.0
1960 H 54.097 61.945 55.316 H 0.0 **** 0.0
1961 C 42.046 97.449 35.324 C 0.0 **** 0.0
1962 H 42.138 98.447 34.895 H 0.0 **** 0.0
1963 H 42.4 96.71 34.604 H 0.0 **** 0.0
1964 H 41.001 97.252 35.563 H 0.0 **** 0.0
1965 H 42.645 97.388 36.233 H 0.0 **** 0.0
1966 C 85.113 27.247 52.643 C 0.0 **** 0.0
1967 H 85.366 27.192 53.702 H 0.0 **** 0.0
1968 H 85.233 28.272 52.293 H 0.0 **** 0.0
1969 H 84.079 26.932 52.5 H 0.0 **** 0.0
1970 H 85.774 26.59 52.077 H 0.0 **** 0.0
1971 C 92.089 64.742 76.673 C 0.0 **** 0.0
1972 H 92.231 65.577 77.359 H 0.0 **** 0.0
1973 H 91.789 63.858 77.235 H 0.0 **** 0.0
1974 H 93.023 64.541 76.148 H 0.0 **** 0.0
1975 H 91.313 64.995 75.95 H 0.0 **** 0.0
1976 C 30.618 92.308 25.495 C 0.0 **** 0.0
1977 H 30.002 91.774 26.218 H 0.0 **** 0.0
1978 H 30.064 92.429 24.564 H 0.0 **** 0.0
1979 H 31.529 91.739 25.304 H 0.0 **** 0.0
1980 H 30.879 93.288 25.894 H 0.0 **** 0.0
1981 C 28.477 55.476 49.833 C 0.0 **** 0.0
1982 H 28.219 54.972 48.902 H 0.0 **** 0.0
1983 H 29.472 55.162 50.152 H 0.0 **** 0.0
1984 H 27.75 55.215 50.601 H 0.0 **** 0.0
1985 H 28.469 56.555 49.676 H 0.0 **** 0.0
1986 C 89.684 41.799 14.224 C 0.0 **** 0.0
1987 H 89.708 41.69 13.14 H 0.0 **** 0.0
1988 H 90.593 41.376 14.652 H 0.0 **** 0.0
1989 H 88.816 41.272 14.622 H 0.0 **** 0.0
1990 H 89.617 42.856 14.482 H 0.0 **** 0.0
1991 C 81.464 91.442 38.095 C 0.0 **** 0.0
1992 H 80.724 91.01 37.422 H 0.0 **** 0.0
1993 H 82.461 91.308 37.673 H 0.0 **** 0.0
1994 H 81.409 90.944 39.063 H 0.0 **** 0.0
1995 H 81.263 92.506 38.221 H 0.0 **** 0.0
1996 C 71.782 67.962 42.941 C 0.0 **** 0.0
1997 H 72.234 68.679 43.626 H 0.0 **** 0.0
1998 H 70.776 68.293 42.682 H 0.0 **** 0.0
1999 H 71.731 66.984 43.42 H 0.0 **** 0.0
2000 H 72.386 67.893 42.037 H 0.0 **** 0.0
2001 C 71.121 53.731 30.492 C 0.0 **** 0.0
2002 H 71.301 54.778 30.25 H 0.0 **** 0.0
2003 H 71.948 53.125 30.121 H 0.0 **** 0.0
2004 H 70.192 53.404 30.024 H 0.0 **** 0.0
2005 H 71.043 53.616 31.573 H 0.0 **** 0.0
2006 C 17.204 66.331 96.824 C 0.0 **** 0.0
2007 H 16.305 65.771 97.084 H 0.0 **** 0.0
2008 H 17.71 65.84 95.992 H 0.0 **** 0.0
2009 H 17.871 66.366 97.685 H 0.0 **** 0.0
2010 H 16.929 67.345 96.535 H 0.0 **** 0.0
2011 C 63.758 79.094 6.505 C 0.0 **** 0.0
2012 H 62.842 79.185 5.922 H 0.0 **** 0.0
2013 H 64.04 80.073 6.893 H 0.0 **** 0.0
2014 H 64.556 78.71 5.869 H 0.0 **** 0.0
2015 H 63.593 78.407 7.335 H 0.0 **** 0.0
2016 C 34.423 58.887 20.768 C 0.0 **** 0.0
2017 H 35.048 58.371 21.496 H 0.0 **** 0.0
2018 H 33.566 58.262 20.516 H 0.0 **** 0.0
2019 H 35.004 59.087 19.868 H 0.0 **** 0.0
2020 H 34.074 59.829 21.192 H 0.0 **** 0.0
2021 C 28.524 57.691 24.937 C 0.0 **** 0.0
2022 H 29.129 58.424 25.472 H 0.0 **** 0.0
2023 H 27.538 57.63 25.396 H 0.0 **** 0.0
2024 H 29.009 56.716 24.985 H 0.0 **** 0.0
2025 H 28.423 57.996 23.895 H 0.0 **** 0.0
2026 C 63.174 19.651 45.792 C 0.0 **** 0.0
2027 H 62.949 20.101 44.825 H 0.0 **** 0.0
2028 H 64.191 19.258 45.782 H 0.0 **** 0.0
2029 H 62.472 18.84 45.987 H 0.0 **** 0.0
2030 H 63.083 20.406 46.573 H 0.0 **** 0.0
2031 C 46.36 30.119 47.991 C 0.0 **** 0.0
2032 H 47.341 30.58 47.874 H 0.0 **** 0.0
2033 H 45.585 30.867 47.817 H 0.0 **** 0.0
2034 H 46.263 29.723 49.002 H 0.0 **** 0.0
2035 H 46.251 29.309 47.271 H 0.0 **** 0.0
2036 C 92.821 91.248 6.633 C 0.0 **** 0.0
2037 H 92.318 92.185 6.874 H 0.0 **** 0.0
2038 H 93.861 91.301 6.957 H 0.0 **** 0.0
2039 H 92.784 91.083 5.556 H 0.0 **** 0.0
2040 H 92.322 90.425 7.144 H 0.0 **** 0.0
2041 C 74.047 22.224 82.68 C 0.0 **** 0.0
2042 H 74.998 22.659 82.987 H 0.0 **** 0.0
2043 H 73.332 22.298 83.5 H 0.0 **** 0.0
2044 H 74.194 21.176 82.419 H 0.0 **** 0.0
2045 H 73.664 22.764 81.814 H 0.0 **** 0.0
2046 C 85.332 25.842 9.859 C 0.0 **** 0.0
2047 H 84.249 25.818 9.978 H 0.0 **** 0.0
2048 H 85.666 26.877 9.773 H 0.0 **** 0.0
2049 H 85.611 25.294 8.959 H 0.0 **** 0.0
2050 H 85.803 25.379 10.727 H 0.0 **** 0.0
2051 C 10.251 73.535 13.387 C 0.0 **** 0.0
2052 H 9.398 74.117 13.039 H 0.0 **** 0.0
2053 H 10.705 73.014 12.544 H 0.0 **** 0.0
2054 H 9.917 72.808 14.127 H 0.0 **** 0.0
2055 H 10.985 74.202 13.84 H 0.0 **** 0.0
2056 C 90.291 73.333 12.765 C 0.0 **** 0.0
2057 H 90.465 73.65 13.793 H 0.0 **** 0.0
2058 H 89.558 73.992 12.301 H 0.0 **** 0.0
2059 H 89.916 72.309 12.759 H 0.0 **** 0.0
2060 H 91.227 73.38 12.207 H 0.0 **** 0.0
2061 C 38.962 90.259 38.938 C 0.0 **** 0.0
2062 H 38.903 89.462 38.197 H 0.0 **** 0.0
2063 H 38.734 89.855 39.925 H 0.0 **** 0.0
2064 H 38.242 91.04 38.69 H 0.0 **** 0.0
2065 H 39.967 90.68 38.94 H 0.0 **** 0.0
2066 C 53.242 8.474 36.568 C 0.0 **** 0.0
2067 H 53.797 9.319 36.976 H 0.0 **** 0.0
2068 H 53.227 7.664 37.296 H 0.0 **** 0.0
2069 H 53.723 8.132 35.652 H 0.0 **** 0.0
2070 H 52.22 8.784 36.348 H 0.0 **** 0.0
2071 C 92.385 4.419 76.1 C 0.0 **** 0.0
2072 H 92.388 4.425 75.01 H 0.0 **** 0.0
2073 H 91.402 4.721 76.462 H 0.0 **** 0.0
2074 H 93.139 5.115 76.469 H 0.0 **** 0.0
2075 H 92.612 3.415 76.459 H 0.0 **** 0.0
2076 C 78.987 52.27 80.702 C 0.0 **** 0.0
2077 H 79.665 52.302 79.849 H 0.0 **** 0.0
2078 H 79.566 52.237 81.625 H 0.0 **** 0.0
2079 H 78.36 51.381 80.634 H 0.0 **** 0.0
2080 H 78.358 53.16 80.699 H 0.0 **** 0.0
2081 C 25.035 98.073 66.142 C 0.0 **** 0.0
2082 H 25.291 97.161 65.602 H 0.0 **** 0.0
2083 H 25.231 98.938 65.509 H 0.0 **** 0.0
2084 H 25.639 98.14 67.047 H 0.0 **** 0.0
2085 H 23.979 98.05 66.411 H 0.0 **** 0.0
2086 C 12.133 17.056 31.24 C 0.0 **** 0.0
2087 H 12.42 16.903 32.28 H 0.0 **** 0.0
2088 H 12.062 18.124 31.035 H 0.0 **** 0.0
2089 H 11.166 16.586 31.057 H 0.0 **** 0.0
2090 H 12.883 16.609 30.587 H 0.0 **** 0.0
2091 C 22.498 21.581 47.452 C 0.0 **** 0.0
2092 H 22.496 21.577 48.542 H 0.0 **** 0.0
2093 H 23.405 22.068 47.093 H 0.0 **** 0.0
2094 H 21.625 22.125 47.09 H 0.0 **** 0.0
2095 H 22.465 20.555 47.085 H 0.0 **** 0.0
2096 C 49.119 1.836 26.853 C 0.0 **** 0.0
2097 H 50.056 1.648 26.329 H 0.0 **** 0.0
2098 H 48.632 0.887 27.078 H 0.0 **** 0.0
2099 H 48.466 2.44 26.224 H 0.0 **** 0.0
2100 H 49.324 2.369 27.782 H 0.0 **** 0.0
2101 C 23.161 42.043 3.778 C 0.0 **** 0.0
2102 H 22.17 42.189 4.207 H 0.0 **** 0.0
2103 H 23.424 42.908 3.169 H 0.0 **** 0.0
2104 H 23.159 41.147 3.156 H 0.0 **** 0.0
2105 H 23.89 41.927 4.58 H 0.0 **** 0.0
2106 C 14.615 29.52 41.455 C 0.0 **** 0.0
2107 H 14.663 29.051 40.473 H 0.0 **** 0.0
2108 H 14.177 30.514 41.363 H 0.0 **** 0.0
2109 H 15.621 29.604 41.867 H 0.0 **** 0.0
2110 H 14.001 28.912 42.119 H 0.0 **** 0.0
2111 C 74.258 39.682 38.13 C 0.0 **** 0.0
2112 H 74.73 39.925 37.178 H 0.0 **** 0.0
2113 H 73.9 40.598 38.601 H 0.0 **** 0.0
2114 H 74.984 39.197 38.782 H 0.0 **** 0.0
2115 H 73.418 39.01 37.957 H 0.0 **** 0.0
2116 C 12.616 75.89 62.074 C 0.0 **** 0.0
2117 H 12.589 76.583 62.915 H 0.0 **** 0.0
2118 H 13.505 76.084 61.473 H 0.0 **** 0.0
2119 H 11.726 76.028 61.461 H 0.0 **** 0.0
2120 H 12.646 74.867 62.447 H 0.0 **** 0.0
2121 C 28.233 6.466 66.856 C 0.0 **** 0.0
2122 H 27.633 6.001 67.639 H 0.0 **** 0.0
2123 H 28.481 5.722 66.099 H 0.0 **** 0.0
2124 H 29.15 6.864 67.29 H 0.0 **** 0.0
2125 H 27.666 7.276 66.398 H 0.0 **** 0.0
2126 C 37.173 21.455 4.838 C 0.0 **** 0.0
2127 H 37.191 21.498 5.927 H 0.0 **** 0.0
2128 H 36.23 21.019 4.507 H 0.0 **** 0.0
2129 H 38.001 20.841 4.484 H 0.0 **** 0.0
2130 H 37.269 22.463 4.433 H 0.0 **** 0.0
2131 C 60.883 40.03 78.749 C 0.0 **** 0.0
2132 H 59.925 39.61 79.056 H 0.0 **** 0.0
2133 H 60.88 41.106 78.923 H 0.0 **** 0.0
2134 H 61.043 39.833 77.689 H 0.0 **** 0.0
2135 H 61.684 39.57 79.329 H 0.0 **** 0.0
2136 C 72.04 36.741 76.833 C 0.0 **** 0.0
2137 H 71.754 37.544 76.153 H 0.0 **** 0.0
2138 H 72.189 35.821 76.267 H 0.0 **** 0.0
2139 H 71.252 36.592 77.571 H 0.0 **** 0.0
2140 H 72.967 37.009 77.341 H 0.0 **** 0.0
2141 C 96.029 90.345 30.025 C 0.0 **** 0.0
2142 H 96.712 89.732 29.436 H 0.0 **** 0.0
2143 H 95.322 89.7 30.547 H 0.0 **** 0.0
2144 H 95.485 91.02 29.364 H 0.0 **** 0.0
2145 H 96.597 90.926 30.751 H 0.0 **** 0.0
2146 C 16.667 39.304 33.757 C 0.0 **** 0.0
2147 H 16.869 39.437 32.694 H 0.0 **** 0.0
2148 H 17.304 38.513 34.152 H 0.0 **** 0.0
2149 H 15.621 39.032 33.896 H 0.0 **** 0.0
2150 H 16.873 40.235 34.285 H 0.0 **** 0.0
2151 C 20.8 84.624 40.059 C 0.0 **** 0.0
2152 H 20.995 85.215 39.164 H 0.0 **** 0.0
2153 H 20.916 83.565 39.827 H 0.0 **** 0.0
2154 H 19.783 84.812 40.403 H 0.0 **** 0.0
2155 H 21.506 84.906 40.84 H 0.0 **** 0.0
2156 C 91.656 31.467 76.944 C 0.0 **** 0.0
2157 H 91.748 31.506 75.859 H 0.0 **** 0.0
2158 H 90.824 32.096 77.261 H 0.0 **** 0.0
2159 H 92.578 31.827 77.399 H 0.0 **** 0.0
2160 H 91.474 30.439 77.257 H 0.0 **** 0.0
2161 C 31.646 15.535 94.982 C 0.0 **** 0.0
2162 H 31.519 15.371 96.052 H 0.0 **** 0.0
2163 H 32.342 14.797 94.582 H 0.0 **** 0.0
2164 H 32.041 16.536 94.813 H 0.0 **** 0.0
2165 H 30.683 15.434 94.482 H 0.0 **** 0.0
2166 C 75.873 13.519 90.858 C 0.0 **** 0.0
2167 H 74.934 13.075 90.529 H 0.0 **** 0.0
2168 H 76.091 14.399 90.253 H 0.0 **** 0.0
2169 H 76.678 12.792 90.745 H 0.0 **** 0.0
2170 H 75.791 13.809 91.906 H 0.0 **** 0.0
2171 C 27.483 29.648 39.187 C 0.0 **** 0.0
2172 H 27.038 30.25 38.395 H 0.0 **** 0.0
2173 H 28.431 29.235 38.84 H 0.0 **** 0.0
2174 H 26.806 28.834 39.448 H 0.0 **** 0.0
2175 H 27.657 30.272 40.064 H 0.0 **** 0.0
2176 C 87.325 37.806 69.808 C 0.0 **** 0.0
2177 H 86.718 37.738 68.905 H 0.0 **** 0.0
2178 H 88.147 37.093 69.748 H 0.0 **** 0.0
2179 H 86.708 37.578 70.677 H 0.0 **** 0.0
2180 H 87.725 38.816 69.901 H 0.0 **** 0.0
2181 C 86.915 1.753 95.946 C 0.0 **** 0.0
2182 H 87.903 1.292 95.933 H 0.0 **** 0.0
2183 H 86.288 1.248 96.681 H 0.0 **** 0.0
2184 H 86.461 1.667 94.959 H 0.0 **** 0.0
2185 H 87.009 2.806 96.212 H 0.0 **** 0.0
2186 C 61.351 63.012 29.019 C 0.0 **** 0.0
2187 H 61.888 62.211 29.528 H 0.0 **** 0.0
2188 H 61.33 63.897 29.655 H 0.0 **** 0.0
2189 H 60.33 62.689 28.811 H 0.0 **** 0.0
2190 H 61.855 63.249 28.082 H 0.0 **** 0.0
2191 C 44.816 64.479 51.182 C 0.0 **** 0.0
2192 H 44.851 63.766 50.358 H 0.0 **** 0.0
2193 H 43.834 64.439 51.655 H 0.0 **** 0.0
2194 H 44.994 65.484 50.8 H 0.0 **** 0.0
2195 H 45.583 64.227 51.914 H 0.0 **** 0.0
2196 C 52.482 58.332 23.916 C 0.0 **** 0.0
2197 H 52.72 58.731 22.93 H 0.0 **** 0.0
2198 H 53.315 57.724 24.272 H 0.0 **** 0.0
2199 H 51.585 57.716 23.852 H 0.0 **** 0.0
2200 H 52.31 59.155 24.609 H 0.0 **** 0.0
2201 C 69.887 76.879 21.648 C 0.0 **** 0.0
2202 H 70.938 76.784 21.919 H 0.0 **** 0.0
2203 H 69.402 75.906 21.731 H 0.0 **** 0.0
2204 H 69.807 77.238 20.622 H 0.0 **** 0.0
2205 H 69.4 77.586 22.319 H 0.0 **** 0.0
2206 C 28.789 37.547 5.134 C 0.0 **** 0.0
2207 H 29.637 37.055 5.61 H 0.0 **** 0.0
2208 H 28.697 38.564 5.517 H 0.0 **** 0.0
2209 H 27.877 36.992 5.354 H 0.0 **** 0.0
2210 H 28.944 37.577 4.056 H 0.0 **** 0.0
2211 C 70.431 82.337 93.102 C 0.0 **** 0.0
2212 H 69.743 82.268 92.26 H 0.0 **** 0.0
2213 H 71.42 81.997 92.791 H 0.0 **** 0.0
2214 H 70.071 81.709 93.918 H 0.0 **** 0.0
2215 H 70.491 83.372 93.439 H 0.0 **** 0.0
2216 C 25.216 42.953 47.327 C 0.0 **** 0.0
2217 H 25.245 42.976 46.238 H 0.0 **** 0.0
2218 H 26.234 42.911 47.716 H 0.0 **** 0.0
2219 H 24.663 42.074 47.657 H 0.0 **** 0.0
2220 H 24.723 43.852 47.696 H 0.0 **** 0.0
2221 C 74.431 28.772 36.018 C 0.0 **** 0.0
2222 H 74.54 29.461 35.181 H 0.0 **** 0.0
2223 H 74.208 27.774 35.64 H 0.0 **** 0.0
2224 H 73.618 29.107 36.662 H 0.0 **** 0.0
2225 H 75.359 28.745 36.589 H 0.0 **** 0.0
2226 C 92.325 74.873 92.383 C 0.0 **** 0.0
2227 H 91.653 75.042 91.542 H 0.0 **** 0.0
2228 H 91.977 74.015 92.959 H 0.0 **** 0.0
2229 H 92.34 75.757 93.02 H 0.0 **** 0.0
2230 H 93.33 74.677 92.01 H 0.0 **** 0.0
2231 C 86.912 32.175 36.75 C 0.0 **** 0.0
2232 H 86.363 32.566 35.893 H 0.0 **** 0.0
2233 H 87.909 31.869 36.433 H 0.0 **** 0.0
2234 H 86.381 31.316 37.16 H 0.0 **** 0.0
2235 H 86.994 32.949 37.512 H 0.0 **** 0.0
2236 C 94.951 75.438 52.117 C 0.0 **** 0.0
2237 H 93.871 75.517 52.241 H 0.0 **** 0.0
2238 H 95.33 76.345 51.646 H 0.0 **** 0.0
2239 H 95.182 74.578 51.488 H 0.0 **** 0.0
2240 H 95.42 75.311 53.093 H 0.0 **** 0.0
2241 C 93.589 80.607 11.565 C 0.0 **** 0.0
2242 H 93.31 80.194 12.534 H 0.0 **** 0.0
2243 H 94.356 81.369 11.702 H 0.0 **** 0.0
2244 H 92.712 81.054 11.095 H 0.0 **** 0.0
2245 H 93.976 79.812 10.928 H 0.0 **** 0.0
2246 C 94.123 37.079 63.229 C 0.0 **** 0.0
2247 H 94.441 38.121 63.189 H 0.0 **** 0.0
2248 H 94.955 36.435 62.942 H 0.0 **** 0.0
2249 H 93.291 36.926 62.543 H 0.0 **** 0.0
2250 H 93.807 36.835 64.244 H 0.0 **** 0.0
2251 C 88.989 1.515 62.496 C 0.0 **** 0.0
2252 H 89.954 1.266 62.936 H 0.0 **** 0.0
2253 H 88.617 2.44 62.937 H 0.0 **** 0.0
2254 H 88.282 0.709 62.69 H 0.0 **** 0.0
2255 H 89.104 1.647 61.42 H 0.0 **** 0.0
2256 C 88.101 50.769 79.112 C 0.0 **** 0.0
2257 H 87.714 50.123 79.901 H 0.0 **** 0.0
2258 H 89.182 50.649 79.043 H 0.0 **** 0.0
2259 H 87.864 51.807 79.344 H 0.0 **** 0.0
2260 H 87.643 50.495 78.162 H 0.0 **** 0.0
2261 C 46.881 12.489 18.77 C 0.0 **** 0.0
2262 H 46.919 12.423 19.857 H 0.0 **** 0.0
2263 H 45.869 12.273 18.428 H 0.0 **** 0.0
2264 H 47.573 11.766 18.338 H 0.0 **** 0.0
2265 H 47.164 13.494 18.457 H 0.0 **** 0.0
2266 C 6.992 49.628 44.702 C 0.0 **** 0.0
2267 H 6.822 49.937 43.671 H 0.0 **** 0.0
2268 H 8.059 49.476 44.864 H 0.0 **** 0.0
2269 H 6.459 48.697 44.894 H 0.0 **** 0.0
2270 H 6.628 50.401 45.379 H 0.0 **** 0.0
2271 C 61.93 14.798 33.15 C 0.0 **** 0.0
2272 H 61.773 14.736 34.227 H 0.0 **** 0.0
2273 H 62.513 15.691 32.92 H 0.0 **** 0.0
2274 H 60.966 14.853 32.645 H 0.0 **** 0.0
2275 H 62.469 13.914 32.81 H 0.0 **** 0.0
2276 C 26.063 3.838 92.756 C 0.0 **** 0.0
2277 H 26.052 2.871 92.253 H 0.0 **** 0.0
2278 H 26.557 3.739 93.723 H 0.0 **** 0.0
2279 H 25.039 4.182 92.904 H 0.0 **** 0.0
2280 H 26.603 4.56 92.144 H 0.0 **** 0.0
2281 C 92.305 81.621 40.137 C 0.0 **** 0.0
2282 H 92.44 82.687 39.957 H 0.0 **** 0.0
2283 H 92.92 81.315 40.983 H 0.0 **** 0.0
2284 H 92.604 81.062 39.25 H 0.0 **** 0.0
2285 H 91.257 81.419 40.357 H 0.0 **** 0.0
2286 C 1.014 5.427 72.769 C 0.0 **** 0.0
2287 H 1.268 5.139 73.789 H 0.0 **** 0.0
2288 H 0.014 5.064 72.528 H 0.0 **** 0.0
2289 H 1.735 4.991 72.078 H 0.0 **** 0.0
2290 H 1.037 6.513 72.682 H 0.0 **** 0.0
2291 C 89.57 11.585 18.211 C 0.0 **** 0.0
2292 H 89.164 10.626 17.887 H 0.0 **** 0.0
2293 H 90.116 12.044 17.386 H 0.0 **** 0.0
2294 H 90.246 11.427 19.051 H 0.0 **** 0.0
2295 H 88.755 12.24 18.518 H 0.0 **** 0.0
2296 C 57.655 46.988 20.295 C 0.0 **** 0.0
2297 H 58.44 47.314 19.612 H 0.0 **** 0.0
2298 H 57.341 47.827 20.915 H 0.0 **** 0.0
2299 H 58.037 46.189 20.931 H 0.0 **** 0.0
2300 H 56.804 46.621 19.721 H 0.0 **** 0.0
2301 C 18.928 10.879 80.962 C 0.0 **** 0.0
2302 H 17.892 11.086 80.693 H 0.0 **** 0.0
2303 H 19.573 11.089 80.108 H 0.0 **** 0.0
2304 H 19.028 9.831 81.245 H 0.0 **** 0.0
2305 H 19.219 11.512 81.801 H 0.0 **** 0.0
2306 C 52.981 95.547 36.732 C 0.0 **** 0.0
2307 H 51.899 95.596 36.612 H 0.0 **** 0.0
2308 H 53.307 94.509 36.674 H 0.0 **** 0.0
2309 H 53.257 95.962 37.701 H 0.0 **** 0.0
2310 H 53.46 96.124 35.94 H 0.0 **** 0.0
2311 C 53.732 21.332 7.23 C 0.0 **** 0.0
2312 H 53.573 21.561 6.176 H 0.0 **** 0.0
2313 H 54.129 20.321 7.326 H 0.0 **** 0.0
2314 H 52.785 21.404 7.764 H 0.0 **** 0.0
2315 H 54.443 22.043 7.652 H 0.0 **** 0.0
2316 C 15.915 58.248 22.489 C 0.0 **** 0.0
2317 H 15.945 58.182 21.402 H 0.0 **** 0.0
2318 H 16.704 58.916 22.834 H 0.0 **** 0.0
2319 H 16.064 57.257 22.918 H 0.0 **** 0.0
2320 H 14.946 58.638 22.802 H 0.0 **** 0.0
2321 C 25.28 68.332 37.505 C 0.0 **** 0.0
2322 H 25.454 68.627 38.539 H 0.0 **** 0.0
2323 H 26.237 68.178 37.005 H 0.0 **** 0.0
2324 H 24.724 69.117 36.992 H 0.0 **** 0.0
2325 H 24.705 67.406 37.483 H 0.0 **** 0.0
2326 C 0.816 80.843 29.204 C 0.0 **** 0.0
2327 H 0.758 80.93 30.289 H 0.0 **** 0.0
2328 H 0.659 81.822 28.752 H 0.0 **** 0.0
2329 H 0.048 80.153 28.854 H 0.0 **** 0.0
2330 H 1.799 80.465 28.922 H 0.0 **** 0.0
2331 C 22.35 76.364 24.187 C 0.0 **** 0.0
2332 H 21.519 75.727 24.49 H 0.0 **** 0.0
2333 H 23.279 75.968 24.598 H 0.0 **** 0.0
2334 H 22.189 77.375 24.56 H 0.0 **** 0.0
2335 H 22.413 76.384 23.099 H 0.0 **** 0.0
2336 C 16.342 37.827 21.794 C 0.0 **** 0.0
2337 H 16.357 38.845 21.405 H 0.0 **** 0.0
2338 H 15.633 37.764 22.619 H 0.0 **** 0.0
2339 H 17.338 37.559 22.149 H 0.0 **** 0.0
2340 H 16.042 37.14 21.003 H 0.0 **** 0.0
2341 C 95.446 3.129 77.503 C 0.0 **** 0.0
2342 H 94.857 4.001 77.789 H 0.0 **** 0.0
2343 H 96.506 3.347 77.639 H 0.0 **** 0.0
2344 H 95.255 2.889 76.457 H 0.0 **** 0.0
2345 H 95.166 2.281 78.128 H 0.0 **** 0.0
2346 C 61.493 58.253 60.514 C 0.0 **** 0.0
2347 H 62.45 58.07 61.003 H 0.0 **** 0.0
2348 H 61.17 59.274 60.719 H 0.0 **** 0.0
2349 H 60.751 57.552 60.895 H 0.0 **** 0.0
2350 H 61.604 58.116 59.438 H 0.0 **** 0.0
2351 C 45.401 48.436 26.09 C 0.0 **** 0.0
2352 H 44.66 48.068 26.8 H 0.0 **** 0.0
2353 H 46.156 47.667 25.924 H 0.0 **** 0.0
2354 H 45.875 49.331 26.491 H 0.0 **** 0.0
2355 H 44.911 48.675 25.146 H 0.0 **** 0.0
2356 C 41.699 32.599 68.765 C 0.0 **** 0.0
2357 H 41.433 32.306 69.781 H 0.0 **** 0.0
2358 H 40.872 33.153 68.32 H 0.0 **** 0.0
2359 H 41.901 31.708 68.171 H 0.0 **** 0.0
2360 H 42.588 33.229 68.79 H 0.0 **** 0.0
2361 C 87.66 40.423 94.963 C 0.0 **** 0.0
2362 H 87.575 40.654 96.025 H 0.0 **** 0.0
2363 H 86.664 40.297 94.538 H 0.0 **** 0.0
2364 H 88.229 39.502 94.836 H 0.0 **** 0.0
2365 H 88.173 41.239 94.454 H 0.0 **** 0.0
2366 C 72.093 80.236 84.442 C 0.0 **** 0.0
2367 H 71.256 80.401 83.764 H 0.0 **** 0.0
2368 H 72.211 81.105 85.091 H 0.0 **** 0.0
2369 H 73.005 80.088 83.865 H 0.0 **** 0.0
2370 H 71.899 79.352 85.05 H 0.0 **** 0.0
2371 C 45.034 86.453 50.13 C 0.0 **** 0.0
2372 H 45.41 86.806 51.091 H 0.0 **** 0.0
2373 H 45.874 86.228 49.472 H 0.0 **** 0.0
2374 H 44.414 87.226 49.677 H 0.0 **** 0.0
2375 H 44.439 85.552 50.282 H 0.0 **** 0.0
2376 C 43.67 90.642 19.951 C 0.0 **** 0.0
2377 H 43.94 90.982 20.951 H 0.0 **** 0.0
2378 H 42.584 90.595 19.865 H 0.0 **** 0.0
2379 H 44.092 89.652 19.779 H 0.0 **** 0.0
2380 H 44.064 91.339 19.212 H 0.0 **** 0.0
2381 C 53.17 58.776 62.584 C 0.0 **** 0.0
2382 H 53.25 58.72 61.499 H 0.0 **** 0.0
2383 H 53.268 57.777 63.008 H 0.0 **** 0.0
2384 H 52.199 59.192 62.856 H 0.0 **** 0.0
2385 H 53.961 59.416 62.974 H 0.0 **** 0.0
2386 C 65.188 8.255 36.524 C 0.0 **** 0.0
2387 H 64.376 8.921 36.816 H 0.0 **** 0.0
2388 H 65.092 8.006 35.467 H 0.0 **** 0.0
2389 H 65.141 7.343 37.119 H 0.0 **** 0.0
2390 H 66.143 8.751 36.695 H 0.0 **** 0.0
2391 C 93.072 70.904 81.544 C 0.0 **** 0.0
2392 H 93.677 71.561 82.17 H 0.0 **** 0.0
2393 H 92.664 71.473 80.709 H 0.0 **** 0.0
2394 H 92.255 70.49 82.136 H 0.0 **** 0.0
2395 H 93.693 70.093 81.164 H 0.0 **** 0.0
2396 C 23.048 95.015 13.051 C 0.0 **** 0.0
2397 H 23.691 94.585 13.82 H 0.0 **** 0.0
2398 H 22.71 94.226 12.379 H 0.0 **** 0.0
2399 H 23.607 95.76 12.485 H 0.0 **** 0.0
2400 H 22.186 95.487 13.521 H 0.0 **** 0.0
2401 C 90.568 45.21 72.149 C 0.0 **** 0.0
2402 H 89.943 44.598 71.498 H 0.0 **** 0.0
2403 H 91.062 44.572 72.882 H 0.0 **** 0.0
2404 H 89.947 45.943 72.664 H 0.0 **** 0.0
2405 H 91.319 45.726 71.551 H 0.0 **** 0.0
2406 C 57.548 0.976 38.827 C 0.0 **** 0.0
2407 H 56.863 1.021 39.673 H 0.0 **** 0.0
2408 H 58.033 -0.0 38.803 H 0.0 **** 0.0
2409 H 58.304 1.755 38.931 H 0.0 **** 0.0
2410 H 56.993 1.13 37.902 H 0.0 **** 0.0
2411 C 60.126 89.98 83.587 C 0.0 **** 0.0
2412 H 60.401 89.683 84.599 H 0.0 **** 0.0
2413 H 61.027 90.085 82.982 H 0.0 **** 0.0
2414 H 59.596 90.932 83.62 H 0.0 **** 0.0
2415 H 59.48 89.219 83.148 H 0.0 **** 0.0
2416 C 39.304 73.017 69.614 C 0.0 **** 0.0
2417 H 39.183 74.09 69.464 H 0.0 **** 0.0
2418 H 39.048 72.763 70.643 H 0.0 **** 0.0
2419 H 40.339 72.737 69.417 H 0.0 **** 0.0
2420 H 38.646 72.479 68.932 H 0.0 **** 0.0
2421 C 57.555 81.779 88.708 C 0.0 **** 0.0
2422 H 58.107 81.599 89.631 H 0.0 **** 0.0
2423 H 56.703 81.101 88.656 H 0.0 **** 0.0
2424 H 58.21 81.605 87.854 H 0.0 **** 0.0
2425 H 57.202 82.81 88.691 H 0.0 **** 0.0
2426 C 41.422 40.645 60.325 C 0.0 **** 0.0
2427 H 41.966 39.974 60.989 H 0.0 **** 0.0
2428 H 42.019 40.834 59.432 H 0.0 **** 0.0
2429 H 41.229 41.587 60.838 H 0.0 **** 0.0
2430 H 40.476 40.186 60.039 H 0.0 **** 0.0
2431 C 37.787 21.875 11.512 C 0.0 **** 0.0
2432 H 38.136 21.756 10.487 H 0.0 **** 0.0
2433 H 36.75 21.548 11.584 H 0.0 **** 0.0
2434 H 37.858 22.925 11.8 H 0.0 **** 0.0
2435 H 38.406 21.274 12.178 H 0.0 **** 0.0
2436 C 76.788 42.39 72.634 C 0.0 **** 0.0
2437 H 77.227 42.314 71.64 H 0.0 **** 0.0
2438 H 77.581 42.396 73.382 H 0.0 **** 0.0
2439 H 76.131 41.537 72.808 H 0.0 **** 0.0
2440 H 76.212 43.313 72.707 H 0.0 **** 0.0
2441 C 19.34 40.66 4.239 C 0.0 **** 0.0
2442 H 18.831 40.127 5.042 H 0.0 **** 0.0
2443 H 19.723 41.608 4.619 H 0.0 **** 0.0
2444 H 18.638 40.851 3.428 H 0.0 **** 0.0
2445 H 20.168 40.056 3.869 H 0.0 **** 0.0
2446 C 23.351 69.152 72.722 C 0.0 **** 0.0
2447 H 23.168 68.153 73.118 H 0.0 **** 0.0
2448 H 24.329 69.178 72.241 H 0.0 **** 0.0
2449 H 23.327 69.876 73.537 H 0.0 **** 0.0
2450 H 22.58 69.4 71.993 H 0.0 **** 0.0
2451 C 90.812 83.121 45.027 C 0.0 **** 0.0
2452 H 90.85 84.114 45.475 H 0.0 **** 0.0
2453 H 90.42 82.409 45.754 H 0.0 **** 0.0
2454 H 91.816 82.819 44.727 H 0.0 **** 0.0
2455 H 90.163 83.142 44.152 H 0.0 **** 0.0
2456 C 20.264 3.919 18.507 C 0.0 **** 0.0
2457 H 20.009 4.34 19.479 H 0.0 **** 0.0
2458 H 20.479 4.726 17.807 H 0.0 **** 0.0
2459 H 19.426 3.329 18.136 H 0.0 **** 0.0
2460 H 21.142 3.28 18.608 H 0.0 **** 0.0
2461 C 31.07 86.091 71.621 C 0.0 **** 0.0
2462 H 30.548 85.932 72.565 H 0.0 **** 0.0
2463 H 30.664 85.419 70.864 H 0.0 **** 0.0
2464 H 32.133 85.887 71.756 H 0.0 **** 0.0
2465 H 30.936 87.124 71.301 H 0.0 **** 0.0
2466 C 40.957 29.308 85.882 C 0.0 **** 0.0
2467 H 41.741 28.652 86.261 H 0.0 **** 0.0
2468 H 40.545 28.889 84.964 H 0.0 **** 0.0
2469 H 41.375 30.293 85.677 H 0.0 **** 0.0
2470 H 40.167 29.396 86.628 H 0.0 **** 0.0
2471 C 45.095 83.808 86.188 C 0.0 **** 0.0
2472 H 45.691 84.49 85.581 H 0.0 **** 0.0
2473 H 45.6 82.844 86.252 H 0.0 **** 0.0
2474 H 44.115 83.677 85.73 H 0.0 **** 0.0
2475 H 44.976 84.223 87.189 H 0.0 **** 0.0
2476 C 72.56 46.415 4.726 C 0.0 **** 0.0
2477 H 72.907 45.397 4.902 H 0.0 **** 0.0
2478 H 73.409 47.049 4.471 H 0.0 **** 0.0
2479 H 72.079 46.795 5.627 H 0.0 **** 0.0
2480 H 71.844 46.417 3.904 H 0.0 **** 0.0
2481 C 2.542 30.977 11.631 C 0.0 **** 0.0
2482 H 2.089 30.835 12.612 H 0.0 **** 0.0
2483 H 3.361 30.268 11.503 H 0.0 **** 0.0
2484 H 2.926 31.994 11.551 H 0.0 **** 0.0
2485 H 1.792 30.81 10.858 H 0.0 **** 0.0
2486 C 9.808 16.014 25.975 C 0.0 **** 0.0
2487 H 10.399 16.922 25.851 H 0.0 **** 0.0
2488 H 8.793 16.28 26.272 H 0.0 **** 0.0
2489 H 10.261 15.388 26.744 H 0.0 **** 0.0
2490 H 9.78 15.468 25.032 H 0.0 **** 0.0
2491 C 96.065 50.649 40.017 C 0.0 **** 0.0
2492 H 95.232 49.946 40.043 H 0.0 **** 0.0
2493 H 95.706 51.624 39.687 H 0.0 **** 0.0
2494 H 96.824 50.287 39.323 H 0.0 **** 0.0
2495 H 96.496 50.738 41.014 H 0.0 **** 0.0
2496 C 16.029 74.431 4.614 C 0.0 **** 0.0
2497 H 15.435 75.329 4.447 H 0.0 **** 0.0
2498 H 15.368 73.567 4.69 H 0.0 **** 0.0
2499 H 16.597 74.538 5.538 H 0.0 **** 0.0
2500 H 16.716 74.29 3.779 H 0.0 **** 0.0
2501 C 77.98 91.013 65.076 C 0.0 **** 0.0
2502 H 78.0 91.0 66.166 H 0.0 **** 0.0
2503 H 77.184 91.676 64.736 H 0.0 **** 0.0
2504 H 77.797 90.005 64.704 H 0.0 **** 0.0
2505 H 78.937 91.371 64.699 H 0.0 **** 0.0
2506 C 92.111 87.127 31.445 C 0.0 **** 0.0
2507 H 91.253 86.804 32.035 H 0.0 **** 0.0
2508 H 91.988 86.795 30.414 H 0.0 **** 0.0
2509 H 93.021 86.694 31.861 H 0.0 **** 0.0
2510 H 92.18 88.214 31.472 H 0.0 **** 0.0
2511 C 90.495 52.884 75.569 C 0.0 **** 0.0
2512 H 90.635 53.612 74.77 H 0.0 **** 0.0
2513 H 90.613 53.377 76.534 H 0.0 **** 0.0
2514 H 91.237 52.092 75.472 H 0.0 **** 0.0
2515 H 89.495 52.456 75.499 H 0.0 **** 0.0
2516 C 14.109 21.037 32.015 C 0.0 **** 0.0
2517 H 14.085 21.136 33.1 H 0.0 **** 0.0
2518 H 13.826 21.985 31.557 H 0.0 **** 0.0
2519 H 13.41 20.26 31.705 H 0.0 **** 0.0
2520 H 15.117 20.767 31.697 H 0.0 **** 0.0
2521 C 32.12 36.526 84.973 C 0.0 **** 0.0
2522 H 31.92 37.583 85.148 H 0.0 **** 0.0
2523 H 31.614 35.93 85.733 H 0.0 **** 0.0
2524 H 33.194 36.346 85.025 H 0.0 **** 0.0
2525 H 31.752 36.246 83.986 H 0.0 **** 0.0
2526 C 75.342 19.089 81.684 C 0.0 **** 0.0
2527 H 76.112 18.343 81.49 H 0.0 **** 0.0
2528 H 75.274 19.27 82.757 H 0.0 **** 0.0
2529 H 74.383 18.726 81.315 H 0.0 **** 0.0
2530 H 75.6 20.017 81.174 H 0.0 **** 0.0
2531 C 17.859 71.215 82.052 C 0.0 **** 0.0
2532 H 17.818 71.032 80.979 H 0.0 **** 0.0
2533 H 16.866 71.484 82.413 H 0.0 **** 0.0
2534 H 18.553 72.031 82.255 H 0.0 **** 0.0
2535 H 18.199 70.313 82.561 H 0.0 **** 0.0
2536 C 44.843 82.307 26.751 C 0.0 **** 0.0
2537 H 43.861 82.159 26.302 H 0.0 **** 0.0
2538 H 44.923 83.331 27.118 H 0.0 **** 0.0
2539 H 45.615 82.127 26.003 H 0.0 **** 0.0
2540 H 44.971 81.612 27.581 H 0.0 **** 0.0
2541 C 62.445 7.389 96.216 C 0.0 **** 0.0
2542 H 62.77 7.399 97.257 H 0.0 **** 0.0
2543 H 61.606 6.703 96.104 H 0.0 **** 0.0
2544 H 63.27 7.063 95.582 H 0.0 **** 0.0
2545 H 62.136 8.393 95.923 H 0.0 **** 0.0
2546 C 28.607 87.833 30.664 C 0.0 **** 0.0
2547 H 29.176 87.082 30.116 H 0.0 **** 0.0
2548 H 27.762 88.161 30.058 H 0.0 **** 0.0
2549 H 29.249 88.686 30.884 H 0.0 **** 0.0
2550 H 28.241 87.403 31.596 H 0.0 **** 0.0
2551 C 8.351 33.81 12.124 C 0.0 **** 0.0
2552 H 8.1 33.816 11.063 H 0.0 **** 0.0
2553 H 8.466 32.78 12.464 H 0.0 **** 0.0
2554 H 7.552 34.292 12.688 H 0.0 **** 0.0
2555 H 9.284 34.351 12.28 H 0.0 **** 0.0
2556 C 75.552 54.955 41.999 C 0.0 **** 0.0
2557 H 76.42 55.613 42.044 H 0.0 **** 0.0
2558 H 74.901 55.155 42.851 H 0.0 **** 0.0
2559 H 75.881 53.917 42.029 H 0.0 **** 0.0
2560 H 75.006 55.137 41.074 H 0.0 **** 0.0
2561 C 82.123 22.333 31.904 C 0.0 **** 0.0
2562 H 81.597 22.991 32.596 H 0.0 **** 0.0
2563 H 82.787 22.926 31.274 H 0.0 **** 0.0
2564 H 81.4 21.81 31.28 H 0.0 **** 0.0
2565 H 82.709 21.607 32.468 H 0.0 **** 0.0
2566 C 71.422 26.5 1.007 C 0.0 **** 0.0
2567 H 72.045 27.195 1.57 H 0.0 **** 0.0
2568 H 70.525 26.268 1.582 H 0.0 **** 0.0
2569 H 71.981 25.583 0.818 H 0.0 **** 0.0
2570 H 71.138 26.954 0.057 H 0.0 **** 0.0
2571 C 66.143 92.997 55.173 C 0.0 **** 0.0
2572 H 65.305 92.322 55.001 H 0.0 **** 0.0
2573 H 67.063 92.419 55.261 H 0.0 **** 0.0
2574 H 65.976 93.557 56.093 H 0.0 **** 0.0
2575 H 66.228 93.69 54.336 H 0.0 **** 0.0
2576 C 47.371 92.291 45.065 C 0.0 **** 0.0
2577 H 47.154 92.13 46.121 H 0.0 **** 0.0
2578 H 48.1 93.095 44.962 H 0.0 **** 0.0
2579 H 46.453 92.563 44.544 H 0.0 **** 0.0
2580 H 47.775 91.375 44.634 H 0.0 **** 0.0
2581 C 76.538 26.248 41.961 C 0.0 **** 0.0
2582 H 75.998 25.678 41.205 H 0.0 **** 0.0
2583 H 75.871 26.992 42.4 H 0.0 **** 0.0
2584 H 77.389 26.749 41.5 H 0.0 **** 0.0
2585 H 76.892 25.573 42.74 H 0.0 **** 0.0
2586 C 67.069 82.224 43.995 C 0.0 **** 0.0
2587 H 67.663 81.412 43.579 H 0.0 **** 0.0
2588 H 67.732 82.996 44.388 H 0.0 **** 0.0
2589 H 66.442 81.84 44.8 H 0.0 **** 0.0
2590 H 66.438 82.65 43.215 H 0.0 **** 0.0
2591 C 82.83 35.113 43.597 C 0.0 **** 0.0
2592 H 82.621 35.858 44.365 H 0.0 **** 0.0
2593 H 82.607 34.119 43.985 H 0.0 **** 0.0
2594 H 83.882 35.167 43.316 H 0.0 **** 0.0
2595 H 82.21 35.309 42.722 H 0.0 **** 0.0
2596 C 30.733 36.514 18.968 C 0.0 **** 0.0
2597 H 30.865 36.539 20.05 H 0.0 **** 0.0
2598 H 31.482 35.856 18.527 H 0.0 **** 0.0
2599 H 30.85 37.52 18.565 H 0.0 **** 0.0
2600 H 29.737 36.141 18.732 H 0.0 **** 0.0
2601 C 22.509 25.688 33.456 C 0.0 **** 0.0
2602 H 22.225 25.922 34.482 H 0.0 **** 0.0
2603 H 21.846 26.213 32.767 H 0.0 **** 0.0
2604 H 22.426 24.614 33.292 H 0.0 **** 0.0
2605 H 23.537 26.005 33.282 H 0.0 **** 0.0
2606 C 78.133 62.644 93.497 C 0.0 **** 0.0
2607 H 77.51 62.411 94.361 H 0.0 **** 0.0
2608 H 77.831 63.606 93.081 H 0.0 **** 0.0
2609 H 78.012 61.868 92.742 H 0.0 **** 0.0
2610 H 79.177 62.693 93.804 H 0.0 **** 0.0
2611 C 15.8 14.544 71.417 C 0.0 **** 0.0
2612 H 15.269 14.995 70.579 H 0.0 **** 0.0
2613 H 16.604 15.208 71.737 H 0.0 **** 0.0
2614 H 16.22 13.587 71.108 H 0.0 **** 0.0
2615 H 15.107 14.387 72.244 H 0.0 **** 0.0
2616 C 55.649 63.354 74.024 C 0.0 **** 0.0
2617 H 55.194 62.399 74.286 H 0.0 **** 0.0
2618 H 56.675 63.38 74.392 H 0.0 **** 0.0
2619 H 55.079 64.164 74.478 H 0.0 **** 0.0
2620 H 55.648 63.471 72.941 H 0.0 **** 0.0
2621 C 62.866 2.991 92.886 C 0.0 **** 0.0
2622 H 61.915 3.316 92.463 H 0.0 **** 0.0
2623 H 63.325 3.819 93.425 H 0.0 **** 0.0
2624 H 63.529 2.668 92.083 H 0.0 **** 0.0
2625 H 62.694 2.161 93.571 H 0.0 **** 0.0
2626 C 60.964 20.983 79.998 C 0.0 **** 0.0
2627 H 61.387 21.644 80.754 H 0.0 **** 0.0
2628 H 60.596 20.074 80.474 H 0.0 **** 0.0
2629 H 61.733 20.726 79.269 H 0.0 **** 0.0
2630 H 60.14 21.488 79.494 H 0.0 **** 0.0
2631 C 39.778 83.532 98.079 C 0.0 **** 0.0
2632 H 40.382 82.921 97.408 H 0.0 **** 0.0
2633 H 39.588 82.981 99.0 H 0.0 **** 0.0
2634 H 38.83 83.772 97.596 H 0.0 **** 0.0
2635 H 40.312 84.454 98.31 H 0.0 **** 0.0
2636 C 73.805 12.373 24.701 C 0.0 **** 0.0
2637 H 73.256 13.292 24.495 H 0.0 **** 0.0
2638 H 74.475 12.156 23.869 H 0.0 **** 0.0
2639 H 73.101 11.55 24.826 H 0.0 **** 0.0
2640 H 74.387 12.495 25.615 H 0.0 **** 0.0
2641 C 55.634 7.068 69.459 C 0.0 **** 0.0
2642 H 55.541 5.984 69.51 H 0.0 **** 0.0
2643 H 54.765 7.53 69.928 H 0.0 **** 0.0
2644 H 55.692 7.378 68.415 H 0.0 **** 0.0
2645 H 56.539 7.38 69.981 H 0.0 **** 0.0
2646 C 22.888 65.82 70.704 C 0.0 **** 0.0
2647 H 23.534 66.419 70.062 H 0.0 **** 0.0
2648 H 23.497 65.276 71.426 H 0.0 **** 0.0
2649 H 22.327 65.112 70.094 H 0.0 **** 0.0
2650 H 22.194 66.474 71.232 H 0.0 **** 0.0
2651 C 44.937 90.695 55.346 C 0.0 **** 0.0
2652 H 45.108 90.738 56.421 H 0.0 **** 0.0
2653 H 44.309 89.835 55.112 H 0.0 **** 0.0
2654 H 45.892 90.598 54.83 H 0.0 **** 0.0
2655 H 44.439 91.608 55.02 H 0.0 **** 0.0
2656 C 76.033 50.39 38.115 C 0.0 **** 0.0
2657 H 75.853 49.754 37.248 H 0.0 **** 0.0
2658 H 77.083 50.324 38.401 H 0.0 **** 0.0
2659 H 75.409 50.058 38.944 H 0.0 **** 0.0
2660 H 75.788 51.422 37.865 H 0.0 **** 0.0
2661 C 37.194 7.189 77.341 C 0.0 **** 0.0
2662 H 37.874 8.041 77.338 H 0.0 **** 0.0
2663 H 36.173 7.539 77.189 H 0.0 **** 0.0
2664 H 37.263 6.672 78.298 H 0.0 **** 0.0
2665 H 37.467 6.504 76.538 H 0.0 **** 0.0
2666 C 88.248 61.697 74.049 C 0.0 **** 0.0
2667 H 88.255 61.679 72.959 H 0.0 **** 0.0
2668 H 87.861 60.749 74.425 H 0.0 **** 0.0
2669 H 87.612 62.512 74.394 H 0.0 **** 0.0
2670 H 89.263 61.847 74.417 H 0.0 **** 0.0
2671 C 25.701 71.332 61.131 C 0.0 **** 0.0
2672 H 25.144 71.174 60.207 H 0.0 **** 0.0
2673 H 26.627 70.758 61.099 H 0.0 **** 0.0
2674 H 25.099 71.004 61.978 H 0.0 **** 0.0
2675 H 25.933 72.392 61.238 H 0.0 **** 0.0
2676 C 91.301 72.652 54.926 C 0.0 **** 0.0
2677 H 91.372 72.684 53.839 H 0.0 **** 0.0
2678 H 91.318 71.614 55.26 H 0.0 **** 0.0
2679 H 90.37 73.121 55.243 H 0.0 **** 0.0
2680 H 92.145 73.188 55.362 H 0.0 **** 0.0
2681 C 53.402 67.794 39.725 C 0.0 **** 0.0
2682 H 54.192 67.454 40.394 H 0.0 **** 0.0
2683 H 53.067 66.961 39.106 H 0.0 **** 0.0
2684 H 53.784 68.591 39.087 H 0.0 **** 0.0
2685 H 52.565 68.17 40.314 H 0.0 **** 0.0
2686 C 90.016 79.726 79.595 C 0.0 **** 0.0
2687 H 90.601 78.88 79.235 H 0.0 **** 0.0
2688 H 88.958 79.542 79.407 H 0.0 **** 0.0
2689 H 90.326 80.631 79.073 H 0.0 **** 0.0
2690 H 90.178 79.851 80.666 H 0.0 **** 0.0
2691 C 66.451 24.07 32.597 C 0.0 **** 0.0
2692 H 66.85 24.72 33.375 H 0.0 **** 0.0
2693 H 65.361 24.102 32.621 H 0.0 **** 0.0
2694 H 66.788 23.048 32.768 H 0.0 **** 0.0
2695 H 66.803 24.411 31.623 H 0.0 **** 0.0
2696 C 60.095 62.664 44.38 C 0.0 **** 0.0
2697 H 60.301 62.406 45.419 H 0.0 **** 0.0
2698 H 59.679 61.797 43.866 H 0.0 **** 0.0
2699 H 61.021 62.967 43.891 H 0.0 **** 0.0
2700 H 59.38 63.485 44.345 H 0.0 **** 0.0
2701 C 89.098 1.994 51.033 C 0.0 **** 0.0
2702 H 90.081 1.526 50.976 H 0.0 **** 0.0
2703 H 88.491 1.475 51.775 H 0.0 **** 0.0
2704 H 88.611 1.936 50.06 H 0.0 **** 0.0
2705 H 89.21 3.039 51.322 H 0.0 **** 0.0
2706 C 44.168 18.498 7.713 C 0.0 **** 0.0
2707 H 44.743 18.176 6.845 H 0.0 **** 0.0
2708 H 43.169 18.062 7.669 H 0.0 **** 0.0
2709 H 44.09 19.585 7.714 H 0.0 **** 0.0
2710 H 44.669 18.169 8.624 H 0.0 **** 0.0
2711 C 90.092 70.074 34.004 C 0.0 **** 0.0
2712 H 89.811 70.189 35.051 H 0.0 **** 0.0
2713 H 89.346 69.464 33.493 H 0.0 **** 0.0
2714 H 91.065 69.588 33.941 H 0.0 **** 0.0
2715 H 90.144 71.056 33.533 H 0.0 **** 0.0
2716 C 39.06 32.459 72.582 C 0.0 **** 0.0
2717 H 39.214 33.509 72.333 H 0.0 **** 0.0
2718 H 39.33 31.839 71.727 H 0.0 **** 0.0
2719 H 38.012 32.295 72.833 H 0.0 **** 0.0
2720 H 39.683 32.193 73.436 H 0.0 **** 0.0
2721 C 66.624 57.782 66.696 C 0.0 **** 0.0
2722 H 66.021 57.857 65.791 H 0.0 **** 0.0
2723 H 65.969 57.754 67.568 H 0.0 **** 0.0
2724 H 67.285 58.646 66.765 H 0.0 **** 0.0
2725 H 67.22 56.87 66.66 H 0.0 **** 0.0
2726 C 70.842 17.909 68.714 C 0.0 **** 0.0
2727 H 71.544 17.948 69.547 H 0.0 **** 0.0
2728 H 70.863 16.915 68.267 H 0.0 **** 0.0
2729 H 71.124 18.65 67.966 H 0.0 **** 0.0
2730 H 69.837 18.124 69.077 H 0.0 **** 0.0
2731 C 75.117 45.857 40.584 C 0.0 **** 0.0
2732 H 74.364 46.188 41.298 H 0.0 **** 0.0
2733 H 75.848 45.229 41.093 H 0.0 **** 0.0
2734 H 75.619 46.726 40.157 H 0.0 **** 0.0
2735 H 74.638 45.287 39.789 H 0.0 **** 0.0
2736 C 53.771 95.198 90.722 C 0.0 **** 0.0
2737 H 53.572 94.127 90.77 H 0.0 **** 0.0
2738 H 53.89 95.498 89.68 H 0.0 **** 0.0
2739 H 54.685 95.423 91.272 H 0.0 **** 0.0
2740 H 52.937 95.743 91.164 H 0.0 **** 0.0
2741 C 52.881 10.172 85.457 C 0.0 **** 0.0
2742 H 53.339 9.894 86.407 H 0.0 **** 0.0
2743 H 52.094 9.459 85.212 H 0.0 **** 0.0
2744 H 53.638 10.162 84.673 H 0.0 **** 0.0
2745 H 52.454 11.171 85.538 H 0.0 **** 0.0
2746 C 2.804 21.779 33.585 C 0.0 **** 0.0
2747 H 2.237 21.927 32.666 H 0.0 **** 0.0
2748 H 3.819 22.154 33.449 H 0.0 **** 0.0
2749 H 2.838 20.717 33.824 H 0.0 **** 0.0
2750 H 2.322 22.32 34.399 H 0.0 **** 0.0
2751 C 52.428 19.514 30.015 C 0.0 **** 0.0
2752 H 52.535 18.499 29.631 H 0.0 **** 0.0
2753 H 51.717 20.063 29.397 H 0.0 **** 0.0
2754 H 53.396 20.016 29.988 H 0.0 **** 0.0
2755 H 52.066 19.477 31.042 H 0.0 **** 0.0
2756 C 40.762 23.437 52.985 C 0.0 **** 0.0
2757 H 41.082 22.703 53.724 H 0.0 **** 0.0
2758 H 40.036 24.113 53.437 H 0.0 **** 0.0
2759 H 40.304 22.925 52.139 H 0.0 **** 0.0
2760 H 41.625 24.007 52.642 H 0.0 **** 0.0
2761 C 10.821 14.607 79.982 C 0.0 **** 0.0
2762 H 10.798 15.681 79.797 H 0.0 **** 0.0
2763 H 11.024 14.425 81.038 H 0.0 **** 0.0
2764 H 11.605 14.151 79.378 H 0.0 **** 0.0
2765 H 9.858 14.172 79.717 H 0.0 **** 0.0
2766 C 89.143 29.29 86.906 C 0.0 **** 0.0
2767 H 89.528 28.619 87.673 H 0.0 **** 0.0
2768 H 89.186 28.794 85.936 H 0.0 **** 0.0
2769 H 89.748 30.196 86.878 H 0.0 **** 0.0
2770 H 88.11 29.549 87.136 H 0.0 **** 0.0
2771 C 73.347 48.219 97.174 C 0.0 **** 0.0
2772 H 73.427 48.84 98.066 H 0.0 **** 0.0
2773 H 74.342 48.048 96.761 H 0.0 **** 0.0
2774 H 72.728 48.724 96.433 H 0.0 **** 0.0
2775 H 72.894 47.263 97.436 H 0.0 **** 0.0
2776 C 67.487 36.701 64.819 C 0.0 **** 0.0
2777 H 68.317 36.438 64.163 H 0.0 **** 0.0
2778 H 67.26 35.858 65.472 H 0.0 **** 0.0
2779 H 66.611 36.941 64.217 H 0.0 **** 0.0
2780 H 67.761 37.565 65.423 H 0.0 **** 0.0
2781 C 22.428 66.836 85.782 C 0.0 **** 0.0
2782 H 22.924 66.402 86.651 H 0.0 **** 0.0
2783 H 22.704 67.887 85.693 H 0.0 **** 0.0
2784 H 21.348 66.752 85.902 H 0.0 **** 0.0
2785 H 22.736 66.301 84.884 H 0.0 **** 0.0
2786 C 59.46 17.428 16.499 C 0.0 **** 0.0
2787 H 59.481 17.476 15.411 H 0.0 **** 0.0
2788 H 60.464 17.223 16.873 H 0.0 **** 0.0
2789 H 58.785 16.633 16.815 H 0.0 **** 0.0
2790 H 59.111 18.381 16.898 H 0.0 **** 0.0
2791 C 72.249 61.054 35.072 C 0.0 **** 0.0
2792 H 72.437 59.982 35.14 H 0.0 **** 0.0
2793 H 71.295 61.285 35.547 H 0.0 **** 0.0
2794 H 72.216 61.352 34.024 H 0.0 **** 0.0
2795 H 73.048 61.596 35.579 H 0.0 **** 0.0
2796 C 27.875 9.41 39.069 C 0.0 **** 0.0
2797 H 27.799 9.516 37.987 H 0.0 **** 0.0
2798 H 28.924 9.443 39.365 H 0.0 **** 0.0
2799 H 27.442 8.456 39.371 H 0.0 **** 0.0
2800 H 27.335 10.223 39.553 H 0.0 **** 0.0
2801 C 30.67 25.472 51.016 C 0.0 **** 0.0
2802 H 30.146 24.518 51.078 H 0.0 **** 0.0
2803 H 30.969 25.787 52.016 H 0.0 **** 0.0
2804 H 30.009 26.222 50.581 H 0.0 **** 0.0
2805 H 31.555 25.36 50.39 H 0.0 **** 0.0
2806 C 38.963 67.852 7.722 C 0.0 **** 0.0
2807 H 38.241 68.277 7.025 H 0.0 **** 0.0
2808 H 39.907 68.391 7.642 H 0.0 **** 0.0
2809 H 39.123 66.801 7.483 H 0.0 **** 0.0
2810 H 38.58 67.939 8.739 H 0.0 **** 0.0
2811 C 85.726 25.796 15.739 C 0.0 **** 0.0
2812 H 84.938 25.91 16.484 H 0.0 **** 0.0
2813 H 85.337 25.245 14.881 H 0.0 **** 0.0
2814 H 86.561 25.248 16.175 H 0.0 **** 0.0
2815 H 86.065 26.78 15.416 H 0.0 **** 0.0
2816 C 94.729 24.047 59.445 C 0.0 **** 0.0
2817 H 94.439 24.196 60.485 H 0.0 **** 0.0
2818 H 95.759 24.376 59.304 H 0.0 **** 0.0
2819 H 94.07 24.628 58.798 H 0.0 **** 0.0
2820 H 94.646 22.99 59.192 H 0.0 **** 0.0
2821 C 74.648 13.646 48.89 C 0.0 **** 0.0
2822 H 74.58 13.736 47.805 H 0.0 **** 0.0
2823 H 73.728 14.014 49.343 H 0.0 **** 0.0
2824 H 75.492 14.233 49.251 H 0.0 **** 0.0
2825 H 74.793 12.599 49.158 H 0.0 **** 0.0
2826 C 24.667 76.039 18.581 C 0.0 **** 0.0
2827 H 24.135 75.577 17.75 H 0.0 **** 0.0
2828 H 25.737 75.858 18.473 H 0.0 **** 0.0
2829 H 24.319 75.609 19.52 H 0.0 **** 0.0
2830 H 24.478 77.113 18.582 H 0.0 **** 0.0
2831 C 31.648 97.905 10.318 C 0.0 **** 0.0
2832 H 32.057 98.012 9.313 H 0.0 **** 0.0
2833 H 32.036 98.7 10.955 H 0.0 **** 0.0
2834 H 31.937 96.937 10.727 H 0.0 **** 0.0
2835 H 30.56 97.972 10.275 H 0.0 **** 0.0
2836 C 53.564 12.06 49.849 C 0.0 **** 0.0
2837 H 53.086 13.004 49.587 H 0.0 **** 0.0
2838 H 52.992 11.234 49.425 H 0.0 **** 0.0
2839 H 53.6 11.959 50.933 H 0.0 **** 0.0
2840 H 54.578 12.043 49.448 H 0.0 **** 0.0
2841 C 35.079 31.78 45.779 C 0.0 **** 0.0
2842 H 34.267 32.5 45.882 H 0.0 **** 0.0
2843 H 34.831 31.061 44.999 H 0.0 **** 0.0
2844 H 35.222 31.257 46.725 H 0.0 **** 0.0
2845 H 35.997 32.305 45.512 H 0.0 **** 0.0
2846 C 25.325 31.259 6.36 C 0.0 **** 0.0
2847 H 24.563 31.912 6.786 H 0.0 **** 0.0
2848 H 26.313 31.619 6.65 H 0.0 **** 0.0
2849 H 25.241 31.262 5.274 H 0.0 **** 0.0
2850 H 25.184 30.245 6.733 H 0.0 **** 0.0
2851 C 95.168 51.621 76.674 C 0.0 **** 0.0
2852 H 95.193 51.737 77.758 H 0.0 **** 0.0
2853 H 96.152 51.314 76.319 H 0.0 **** 0.0
2854 H 94.894 52.57 76.214 H 0.0 **** 0.0
2855 H 94.432 50.862 76.408 H 0.0 **** 0.0
2856 C 40.679 89.672 44.659 C 0.0 **** 0.0
2857 H 39.951 90.481 44.709 H 0.0 **** 0.0
2858 H 40.237 88.817 44.147 H 0.0 **** 0.0
2859 H 40.969 89.381 45.669 H 0.0 **** 0.0
2860 H 41.559 90.009 44.112 H 0.0 **** 0.0
2861 C 3.269 64.288 37.154 C 0.0 **** 0.0
2862 H 3.289 64.316 38.244 H 0.0 **** 0.0
2863 H 4.29 64.319 36.772 H 0.0 **** 0.0
2864 H 2.714 65.148 36.779 H 0.0 **** 0.0
2865 H 2.784 63.37 36.823 H 0.0 **** 0.0
2866 C 70.571 69.522 30.786 C 0.0 **** 0.0
2867 H 70.637 69.488 29.699 H 0.0 **** 0.0
2868 H 69.595 69.909 31.08 H 0.0 **** 0.0
2869 H 71.353 70.173 31.177 H 0.0 **** 0.0
2870 H 70.7 68.517 31.189 H 0.0 **** 0.0
2871 C 69.76 63.957 18.565 C 0.0 **** 0.0
2872 H 69.71 64.347 19.581 H 0.0 **** 0.0
2873 H 70.751 64.148 18.151 H 0.0 **** 0.0
2874 H 69.008 64.451 17.949 H 0.0 **** 0.0
2875 H 69.572 62.884 18.577 H 0.0 **** 0.0
2876 C 28.053 15.301 93.698 C 0.0 **** 0.0
2877 H 28.672 14.404 93.681 H 0.0 **** 0.0
2878 H 27.184 15.13 94.333 H 0.0 **** 0.0
2879 H 27.724 15.534 92.686 H 0.0 **** 0.0
2880 H 28.634 16.135 94.093 H 0.0 **** 0.0
2881 C 89.499 18.955 6.583 C 0.0 **** 0.0
2882 H 90.284 19.554 6.122 H 0.0 **** 0.0
2883 H 89.777 18.72 7.611 H 0.0 **** 0.0
2884 H 89.371 18.03 6.02 H 0.0 **** 0.0
2885 H 88.564 19.516 6.579 H 0.0 **** 0.0
2886 C 44.632 35.322 18.698 C 0.0 **** 0.0
2887 H 44.517 35.364 17.615 H 0.0 **** 0.0
2888 H 45.654 35.036 18.944 H 0.0 **** 0.0
2889 H 43.94 34.586 19.108 H 0.0 **** 0.0
2890 H 44.415 36.302 19.125 H 0.0 **** 0.0
2891 C 33.62 61.677 16.984 C 0.0 **** 0.0
2892 H 33.562 61.837 18.061 H 0.0 **** 0.0
2893 H 34.223 62.465 16.533 H 0.0 **** 0.0
2894 H 32.616 61.699 16.56 H 0.0 **** 0.0
2895 H 34.078 60.708 16.785 H 0.0 **** 0.0
2896 C 34.768 86.453 77.16 C 0.0 **** 0.0
2897 H 33.982 86.855 77.799 H 0.0 **** 0.0
2898 H 35.176 85.548 77.612 H 0.0 **** 0.0
2899 H 35.56 87.193 77.049 H 0.0 **** 0.0
2900 H 34.353 86.215 76.181 H 0.0 **** 0.0
2901 C 49.143 55.705 9.852 C 0.0 **** 0.0
2902 H 50.053 55.761 9.255 H 0.0 **** 0.0
2903 H 49.361 55.218 10.803 H 0.0 **** 0.0
2904 H 48.389 55.131 9.313 H 0.0 **** 0.0
2905 H 48.768 56.712 10.038 H 0.0 **** 0.0
2906 C 63.745 11.63 17.525 C 0.0 **** 0.0
2907 H 62.767 11.225 17.786 H 0.0 **** 0.0
2908 H 64.498 11.225 18.201 H 0.0 **** 0.0
2909 H 63.723 12.716 17.612 H 0.0 **** 0.0
2910 H 63.99 11.353 16.5 H 0.0 **** 0.0
2911 C 77.788 52.855 27.886 C 0.0 **** 0.0
2912 H 78.095 53.008 26.852 H 0.0 **** 0.0
2913 H 77.037 53.598 28.156 H 0.0 **** 0.0
2914 H 78.653 52.959 28.541 H 0.0 **** 0.0
2915 H 77.367 51.856 27.996 H 0.0 **** 0.0
2916 C 77.355 50.934 59.915 C 0.0 **** 0.0
2917 H 76.495 50.277 59.78 H 0.0 **** 0.0
2918 H 78.213 50.346 60.242 H 0.0 **** 0.0
2919 H 77.122 51.688 60.666 H 0.0 **** 0.0
2920 H 77.588 51.423 58.969 H 0.0 **** 0.0
2921 C 23.374 22.517 22.319 C 0.0 **** 0.0
2922 H 24.249 22.75 21.711 H 0.0 **** 0.0
2923 H 23.633 21.749 23.047 H 0.0 **** 0.0
2924 H 22.572 22.155 21.676 H 0.0 **** 0.0
2925 H 23.044 23.416 22.84 H 0.0 **** 0.0
2926 C 57.786 87.276 93.305 C 0.0 **** 0.0
2927 H 57.852 87.324 92.218 H 0.0 **** 0.0
2928 H 58.165 86.314 93.649 H 0.0 **** 0.0
2929 H 56.746 87.388 93.611 H 0.0 **** 0.0
2930 H 58.382 88.078 93.74 H 0.0 **** 0.0
2931 C 24.771 90.352 30.686 C 0.0 **** 0.0
2932 H 24.533 90.565 31.728 H 0.0 **** 0.0
2933 H 24.601 89.295 30.483 H 0.0 **** 0.0
2934 H 25.817 90.595 30.496 H 0.0 **** 0.0
2935 H 24.135 90.954 30.038 H 0.0 **** 0.0
2936 C 1.88 70.064 52.125 C 0.0 **** 0.0
2937 H 1.097 69.436 52.551 H 0.0 **** 0.0
2938 H 2.642 70.257 52.881 H 0.0 **** 0.0
2939 H 1.448 71.008 51.794 H 0.0 **** 0.0
2940 H 2.332 69.553 51.275 H 0.0 **** 0.0
2941 C 51.9 71.867 65.683 C 0.0 **** 0.0
2942 H 51.917 72.84 66.174 H 0.0 **** 0.0
2943 H 50.889 71.652 65.338 H 0.0 **** 0.0
2944 H 52.216 71.098 66.388 H 0.0 **** 0.0
2945 H 52.58 71.88 64.83 H 0.0 **** 0.0
2946 C 24.403 32.854 75.617 C 0.0 **** 0.0
2947 H 25.137 32.049 75.611 H 0.0 **** 0.0
2948 H 24.703 33.614 76.339 H 0.0 **** 0.0
2949 H 23.428 32.453 75.895 H 0.0 **** 0.0
2950 H 24.343 33.299 74.624 H 0.0 **** 0.0
2951 C 38.577 75.689 59.562 C 0.0 **** 0.0
2952 H 38.298 74.788 59.015 H 0.0 **** 0.0
2953 H 38.375 76.565 58.945 H 0.0 **** 0.0
2954 H 39.639 75.652 59.805 H 0.0 **** 0.0
2955 H 37.995 75.75 60.482 H 0.0 **** 0.0
2956 C 50.033 42.654 41.751 C 0.0 **** 0.0
2957 H 49.676 43.093 42.683 H 0.0 **** 0.0
2958 H 49.617 41.653 41.639 H 0.0 **** 0.0
2959 H 51.121 42.596 41.771 H 0.0 **** 0.0
2960 H 49.718 43.276 40.913 H 0.0 **** 0.0
2961 C 30.004 60.996 83.267 C 0.0 **** 0.0
2962 H 29.165 60.485 83.74 H 0.0 **** 0.0
2963 H 30.74 60.261 82.942 H 0.0 **** 0.0
2964 H 30.463 61.679 83.983 H 0.0 **** 0.0
2965 H 29.647 61.559 82.405 H 0.0 **** 0.0
2966 C 93.228 74.02 49.732 C 0.0 **** 0.0
2967 H 93.585 74.993 49.396 H 0.0 **** 0.0
2968 H 93.027 74.056 50.803 H 0.0 **** 0.0
2969 H 93.987 73.265 49.529 H 0.0 **** 0.0
2970 H 92.311 73.766 49.199 H 0.0 **** 0.0
2971 C 42.973 47.35 92.456 C 0.0 **** 0.0
2972 H 43.729 47.182 91.689 H 0.0 **** 0.0
2973 H 42.14 47.908 92.027 H 0.0 **** 0.0
2974 H 43.408 47.92 93.277 H 0.0 **** 0.0
2975 H 42.614 46.391 92.829 H 0.0 **** 0.0
2976 C 82.761 55.794 78.962 C 0.0 **** 0.0
2977 H 82.482 56.277 78.026 H 0.0 **** 0.0
2978 H 81.88 55.335 79.411 H 0.0 **** 0.0
2979 H 83.172 56.537 79.646 H 0.0 **** 0.0
2980 H 83.511 55.028 78.765 H 0.0 **** 0.0
2981 C 79.801 4.808 80.612 C 0.0 **** 0.0
2982 H 80.314 5.766 80.522 H 0.0 **** 0.0
2983 H 78.732 4.952 80.452 H 0.0 **** 0.0
2984 H 79.968 4.4 81.609 H 0.0 **** 0.0
2985 H 80.191 4.116 79.865 H 0.0 **** 0.0
2986 C 68.866 55.948 55.733 C 0.0 **** 0.0
2987 H 68.521 56.558 56.567 H 0.0 **** 0.0
2988 H 68.02 55.416 55.297 H 0.0 **** 0.0
2989 H 69.603 55.228 56.091 H 0.0 **** 0.0
2990 H 69.322 56.588 54.978 H 0.0 **** 0.0
2991 C 77.65 85.535 11.065 C 0.0 **** 0.0
2992 H 77.019 84.671 11.276 H 0.0 **** 0.0
2993 H 77.437 86.324 11.786 H 0.0 **** 0.0
2994 H 77.444 85.897 10.058 H 0.0 **** 0.0
2995 H 78.698 85.246 11.141 H 0.0 **** 0.0
2996 C 45.117 30.602 97.664 C 0.0 **** 0.0
2997 H 45.249 30.868 98.713 H 0.0 **** 0.0
2998 H 44.685 29.603 97.595 H 0.0 **** 0.0
2999 H 46.084 30.616 97.162 H 0.0 **** 0.0
3000 H 44.449 31.321 97.189 H 0.0 **** 0.0
3001 C 25.357 39.468 45.623 C 0.0 **** 0.0
3002 H 25.908 40.107 44.934 H 0.0 **** 0.0
3003 H 24.889 40.082 46.393 H 0.0 **** 0.0
3004 H 26.042 38.76 46.089 H 0.0 **** 0.0
3005 H 24.588 38.922 45.076 H 0.0 **** 0.0
3006 C 48.573 84.532 9.007 C 0.0 **** 0.0
3007 H 47.93 83.682 8.776 H 0.0 **** 0.0
3008 H 49.58 84.335 8.64 H 0.0 **** 0.0
3009 H 48.602 84.682 10.086 H 0.0 **** 0.0
3010 H 48.178 85.427 8.526 H 0.0 **** 0.0
3011 C 92.856 37.673 45.949 C 0.0 **** 0.0
3012 H 93.395 36.727 45.891 H 0.0 **** 0.0
3013 H 93.562 38.482 46.138 H 0.0 **** 0.0
3014 H 92.129 37.627 46.76 H 0.0 **** 0.0
3015 H 92.338 37.854 45.007 H 0.0 **** 0.0
3016 C 21.87 97.738 95.802 C 0.0 **** 0.0
3017 H 21.74 98.18 96.79 H 0.0 **** 0.0
3018 H 21.943 98.529 95.056 H 0.0 **** 0.0
3019 H 21.016 97.1 95.575 H 0.0 **** 0.0
3020 H 22.782 97.141 95.79 H 0.0 **** 0.0
3021 C 46.074 42.445 48.792 C 0.0 **** 0.0
3022 H 46.504 43.22 48.157 H 0.0 **** 0.0
3023 H 45.034 42.279 48.508 H 0.0 **** 0.0
3024 H 46.121 42.761 49.834 H 0.0 **** 0.0
3025 H 46.637 41.52 48.667 H 0.0 **** 0.0
3026 C 35.479 73.313 65.896 C 0.0 **** 0.0
3027 H 34.722 74.055 66.15 H 0.0 **** 0.0
3028 H 36.033 73.646 65.018 H 0.0 **** 0.0
3029 H 34.996 72.36 65.683 H 0.0 **** 0.0
3030 H 36.165 73.194 66.735 H 0.0 **** 0.0
3031 C 49.092 59.995 96.187 C 0.0 **** 0.0
3032 H 49.202 59.504 95.22 H 0.0 **** 0.0
3033 H 49.964 59.781 96.804 H 0.0 **** 0.0
3034 H 48.195 59.622 96.683 H 0.0 **** 0.0
3035 H 49.005 61.071 96.04 H 0.0 **** 0.0
3036 C 15.06 13.502 84.882 C 0.0 **** 0.0
3037 H 14.245 12.84 84.589 H 0.0 **** 0.0
3038 H 14.701 14.21 85.63 H 0.0 **** 0.0
3039 H 15.418 14.046 84.008 H 0.0 **** 0.0
3040 H 15.874 12.911 85.301 H 0.0 **** 0.0
3041 C 63.873 22.594 27.296 C 0.0 **** 0.0
3042 H 62.94 22.845 27.8 H 0.0 **** 0.0
3043 H 64.713 22.813 27.955 H 0.0 **** 0.0
3044 H 63.963 23.183 26.383 H 0.0 **** 0.0
3045 H 63.875 21.533 27.045 H 0.0 **** 0.0
3046 C 12.186 48.848 19.485 C 0.0 **** 0.0
3047 H 13.123 48.426 19.122 H 0.0 **** 0.0
3048 H 12.027 49.825 19.029 H 0.0 **** 0.0
3049 H 12.232 48.955 20.569 H 0.0 **** 0.0
3050 H 11.362 48.184 19.221 H 0.0 **** 0.0
3051 C 53.578 57.074 4.066 C 0.0 **** 0.0
3052 H 54.081 56.127 4.263 H 0.0 **** 0.0
3053 H 53.9 57.815 4.797 H 0.0 **** 0.0
3054 H 52.499 56.934 4.14 H 0.0 **** 0.0
3055 H 53.832 57.417 3.063 H 0.0 **** 0.0
3056 C 82.889 58.617 64.001 C 0.0 **** 0.0
3057 H 82.878 58.609 62.911 H 0.0 **** 0.0
3058 H 82.671 57.616 64.374 H 0.0 **** 0.0
3059 H 82.134 59.313 64.366 H 0.0 **** 0.0
3060 H 83.872 58.93 64.352 H 0.0 **** 0.0
3061 C 73.098 26.121 18.613 C 0.0 **** 0.0
3062 H 73.641 25.203 18.39 H 0.0 **** 0.0
3063 H 73.758 26.816 19.132 H 0.0 **** 0.0
3064 H 72.241 25.891 19.247 H 0.0 **** 0.0
3065 H 72.752 26.573 17.684 H 0.0 **** 0.0
3066 C 79.382 72.089 60.856 C 0.0 **** 0.0
3067 H 78.432 71.584 61.033 H 0.0 **** 0.0
3068 H 79.95 71.54 60.105 H 0.0 **** 0.0
3069 H 79.95 72.129 61.785 H 0.0 **** 0.0
3070 H 79.194 73.102 60.501 H 0.0 **** 0.0
3071 C 11.655 80.874 67.248 C 0.0 **** 0.0
3072 H 12.737 80.956 67.351 H 0.0 **** 0.0
3073 H 11.273 81.751 66.725 H 0.0 **** 0.0
3074 H 11.2 80.812 68.236 H 0.0 **** 0.0
3075 H 11.412 79.977 66.679 H 0.0 **** 0.0
3076 C 3.728 90.886 71.556 C 0.0 **** 0.0
3077 H 4.334 91.741 71.857 H 0.0 **** 0.0
3078 H 3.048 91.185 70.758 H 0.0 **** 0.0
3079 H 3.152 90.53 72.41 H 0.0 **** 0.0
3080 H 4.379 90.088 71.199 H 0.0 **** 0.0
3081 C 76.197 95.958 73.738 C 0.0 **** 0.0
3082 H 76.448 96.917 74.191 H 0.0 **** 0.0
3083 H 76.564 95.935 72.712 H 0.0 **** 0.0
3084 H 75.115 95.827 73.741 H 0.0 **** 0.0
3085 H 76.662 95.155 74.309 H 0.0 **** 0.0
3086 C 6.343 53.986 69.655 C 0.0 **** 0.0
3087 H 6.419 53.75 68.593 H 0.0 **** 0.0
3088 H 5.337 54.341 69.877 H 0.0 **** 0.0
3089 H 7.067 54.761 69.907 H 0.0 **** 0.0
3090 H 6.551 53.091 70.241 H 0.0 **** 0.0
3091 C 80.418 8.706 2.983 C 0.0 **** 0.0
3092 H 81.144 9.312 2.441 H 0.0 **** 0.0
3093 H 79.488 9.266 3.092 H 0.0 **** 0.0
3094 H 80.813 8.461 3.969 H 0.0 **** 0.0
3095 H 80.226 7.787 2.429 H 0.0 **** 0.0
3096 C 17.06 45.804 48.415 C 0.0 **** 0.0
3097 H 16.144 45.266 48.66 H 0.0 **** 0.0
3098 H 16.956 46.27 47.435 H 0.0 **** 0.0
3099 H 17.898 45.106 48.399 H 0.0 **** 0.0
3100 H 17.241 46.572 49.166 H 0.0 **** 0.0
3101 C 62.307 80.98 8.926 C 0.0 **** 0.0
3102 H 62.567 81.705 9.697 H 0.0 **** 0.0
3103 H 61.349 80.52 9.17 H 0.0 **** 0.0
3104 H 63.077 80.211 8.875 H 0.0 **** 0.0
3105 H 62.233 81.485 7.963 H 0.0 **** 0.0
3106 C 60.206 60.055 18.67 C 0.0 **** 0.0
3107 H 60.253 59.964 17.585 H 0.0 **** 0.0
3108 H 60.928 60.802 19.003 H 0.0 **** 0.0
3109 H 60.441 59.093 19.125 H 0.0 **** 0.0
3110 H 59.203 60.362 18.966 H 0.0 **** 0.0
3111 C 53.417 89.537 28.512 C 0.0 **** 0.0
3112 H 53.074 89.056 29.427 H 0.0 **** 0.0
3113 H 52.558 89.921 27.96 H 0.0 **** 0.0
3114 H 53.95 88.812 27.897 H 0.0 **** 0.0
3115 H 54.085 90.361 28.763 H 0.0 **** 0.0
3116 C 51.723 65.876 52.244 C 0.0 **** 0.0
3117 H 52.719 66.304 52.125 H 0.0 **** 0.0
3118 H 51.462 65.309 51.351 H 0.0 **** 0.0
3119 H 50.999 66.678 52.391 H 0.0 **** 0.0
3120 H 51.714 65.215 53.111 H 0.0 **** 0.0
3121 C 46.652 26.824 13.899 C 0.0 **** 0.0
3122 H 46.351 26.911 14.943 H 0.0 **** 0.0
3123 H 46.786 25.772 13.646 H 0.0 **** 0.0
3124 H 47.591 27.357 13.747 H 0.0 **** 0.0
3125 H 45.882 27.257 13.261 H 0.0 **** 0.0
3126 C 47.348 73.597 39.91 C 0.0 **** 0.0
3127 H 48.003 74.316 39.418 H 0.0 **** 0.0
3128 H 47.686 72.585 39.686 H 0.0 **** 0.0
3129 H 46.328 73.728 39.548 H 0.0 **** 0.0
3130 H 47.375 73.759 40.987 H 0.0 **** 0.0
3131 C 36.886 0.914 46.671 C 0.0 **** 0.0
3132 H 36.208 1.584 46.142 H 0.0 **** 0.0
3133 H 37.264 1.412 47.565 H 0.0 **** 0.0
3134 H 37.72 0.653 46.02 H 0.0 **** 0.0
3135 H 36.351 0.009 46.958 H 0.0 **** 0.0
3136 C 77.033 11.969 17.945 C 0.0 **** 0.0
3137 H 76.955 12.079 19.026 H 0.0 **** 0.0
3138 H 76.208 12.498 17.466 H 0.0 **** 0.0
3139 H 76.987 10.912 17.683 H 0.0 **** 0.0
3140 H 77.98 12.388 17.604 H 0.0 **** 0.0
3141 C 25.615 27.187 84.022 C 0.0 **** 0.0
3142 H 26.463 27.526 84.617 H 0.0 **** 0.0
3143 H 25.901 27.149 82.971 H 0.0 **** 0.0
3144 H 24.783 27.881 84.147 H 0.0 **** 0.0
3145 H 25.313 26.194 84.354 H 0.0 **** 0.0
3146 C 25.363 15.308 61.273 C 0.0 **** 0.0
3147 H 25.112 14.677 60.42 H 0.0 **** 0.0
3148 H 24.721 15.052 62.116 H 0.0 **** 0.0
3149 H 25.216 16.354 61.007 H 0.0 **** 0.0
3150 H 26.406 15.147 61.549 H 0.0 **** 0.0
3151 C 78.182 80.309 50.74 C 0.0 **** 0.0
3152 H 79.059 79.811 50.328 H 0.0 **** 0.0
3153 H 78.457 81.309 51.077 H 0.0 **** 0.0
3154 H 77.799 79.734 51.583 H 0.0 **** 0.0
3155 H 77.413 80.383 49.971 H 0.0 **** 0.0
3156 C 60.509 33.399 31.898 C 0.0 **** 0.0
3157 H 60.903 32.784 32.708 H 0.0 **** 0.0
3158 H 59.752 32.837 31.35 H 0.0 **** 0.0
3159 H 61.32 33.671 31.222 H 0.0 **** 0.0
3160 H 60.063 34.302 32.313 H 0.0 **** 0.0
3161 C 45.27 81.938 37.13 C 0.0 **** 0.0
3162 H 45.443 82.446 36.181 H 0.0 **** 0.0
3163 H 45.546 82.599 37.951 H 0.0 **** 0.0
3164 H 45.877 81.033 37.173 H 0.0 **** 0.0
3165 H 44.216 81.673 37.213 H 0.0 **** 0.0
3166 C 9.17 54.818 28.141 C 0.0 **** 0.0
3167 H 9.664 54.467 27.235 H 0.0 **** 0.0
3168 H 8.872 55.859 28.013 H 0.0 **** 0.0
3169 H 9.858 54.738 28.983 H 0.0 **** 0.0
3170 H 8.288 54.208 28.334 H 0.0 **** 0.0
3171 C 35.242 3.622 1.438 C 0.0 **** 0.0
3172 H 36.091 3.432 0.781 H 0.0 **** 0.0
3173 H 34.807 4.592 1.199 H 0.0 **** 0.0
3174 H 35.579 3.619 2.475 H 0.0 **** 0.0
3175 H 34.493 2.843 1.297 H 0.0 **** 0.0
3176 C 82.119 67.789 50.619 C 0.0 **** 0.0
3177 H 82.163 68.851 50.859 H 0.0 **** 0.0
3178 H 82.975 67.52 50.001 H 0.0 **** 0.0
3179 H 81.197 67.577 50.077 H 0.0 **** 0.0
3180 H 82.139 67.208 51.542 H 0.0 **** 0.0
3181 C 49.199 79.759 6.307 C 0.0 **** 0.0
3182 H 48.934 79.882 7.357 H 0.0 **** 0.0
3183 H 48.291 79.639 5.715 H 0.0 **** 0.0
3184 H 49.827 78.876 6.192 H 0.0 **** 0.0
3185 H 49.744 80.639 5.965 H 0.0 **** 0.0
3186 C 45.173 97.842 87.939 C 0.0 **** 0.0
3187 H 45.53 98.561 87.201 H 0.0 **** 0.0
3188 H 45.302 96.831 87.553 H 0.0 **** 0.0
3189 H 44.117 98.023 88.139 H 0.0 **** 0.0
3190 H 45.742 97.956 88.861 H 0.0 **** 0.0
3191 C 31.817 31.383 41.952 C 0.0 **** 0.0
3192 H 30.837 31.757 42.249 H 0.0 **** 0.0
3193 H 32.066 31.765 40.962 H 0.0 **** 0.0
3194 H 31.797 30.293 41.927 H 0.0 **** 0.0
3195 H 32.566 31.716 42.67 H 0.0 **** 0.0
3196 C 48.565 62.411 12.47 C 0.0 **** 0.0
3197 H 48.299 62.723 11.46 H 0.0 **** 0.0
3198 H 48.52 63.27 13.14 H 0.0 **** 0.0
3199 H 49.576 62.003 12.47 H 0.0 **** 0.0
3200 H 47.866 61.648 12.811 H 0.0 **** 0.0
3201 C 10.936 19.991 34.958 C 0.0 **** 0.0
3202 H 10.802 19.78 36.019 H 0.0 **** 0.0
3203 H 11.622 19.262 34.526 H 0.0 **** 0.0
3204 H 11.346 20.994 34.836 H 0.0 **** 0.0
3205 H 9.973 19.929 34.451 H 0.0 **** 0.0
3206 C 42.912 69.59 36.541 C 0.0 **** 0.0
3207 H 42.861 69.485 37.625 H 0.0 **** 0.0
3208 H 42.413 70.513 36.243 H 0.0 **** 0.0
3209 H 42.418 68.741 36.07 H 0.0 **** 0.0
3210 H 43.956 69.623 36.229 H 0.0 **** 0.0
3211 C 88.071 32.968 24.258 C 0.0 **** 0.0
3212 H 87.635 33.196 23.285 H 0.0 **** 0.0
3213 H 88.025 33.853 24.893 H 0.0 **** 0.0
3214 H 89.111 32.668 24.127 H 0.0 **** 0.0
3215 H 87.514 32.156 24.725 H 0.0 **** 0.0
3216 C 17.107 6.811 37.024 C 0.0 **** 0.0
3217 H 18.159 6.991 37.248 H 0.0 **** 0.0
3218 H 16.578 7.763 36.977 H 0.0 **** 0.0
3219 H 16.67 6.19 37.805 H 0.0 **** 0.0
3220 H 17.023 6.301 36.064 H 0.0 **** 0.0
3221 C 43.404 51.146 71.839 C 0.0 **** 0.0
3222 H 42.553 51.033 71.167 H 0.0 **** 0.0
3223 H 44.251 51.554 71.288 H 0.0 **** 0.0
3224 H 43.672 50.173 72.252 H 0.0 **** 0.0
3225 H 43.137 51.824 72.65 H 0.0 **** 0.0
3226 C 44.639 23.622 22.984 C 0.0 **** 0.0
3227 H 44.134 23.535 23.946 H 0.0 **** 0.0
3228 H 45.069 22.658 22.711 H 0.0 **** 0.0
3229 H 45.431 24.367 23.056 H 0.0 **** 0.0
3230 H 43.92 23.928 22.223 H 0.0 **** 0.0
3231 C 10.517 16.896 34.685 C 0.0 **** 0.0
3232 H 10.013 17.684 34.125 H 0.0 **** 0.0
3233 H 10.386 17.07 35.753 H 0.0 **** 0.0
3234 H 11.58 16.901 34.443 H 0.0 **** 0.0
3235 H 10.088 15.93 34.418 H 0.0 **** 0.0
3236 C 94.013 0.897 15.35 C 0.0 **** 0.0
3237 H 94.175 1.934 15.057 H 0.0 **** 0.0
3238 H 94.836 0.566 15.983 H 0.0 **** 0.0
3239 H 93.966 0.271 14.458 H 0.0 **** 0.0
3240 H 93.075 0.817 15.9 H 0.0 **** 0.0
3241 C 1.66 84.32 94.476 C 0.0 **** 0.0
3242 H 2.521 84.935 94.213 H 0.0 **** 0.0
3243 H 1.738 84.015 95.52 H 0.0 **** 0.0
3244 H 1.637 83.436 93.84 H 0.0 **** 0.0
3245 H 0.745 84.895 94.333 H 0.0 **** 0.0
3246 C 66.979 38.788 42.321 C 0.0 **** 0.0
3247 H 67.45 38.053 41.668 H 0.0 **** 0.0
3248 H 66.063 38.371 42.737 H 0.0 **** 0.0
3249 H 66.743 39.684 41.746 H 0.0 **** 0.0
3250 H 67.663 39.045 43.13 H 0.0 **** 0.0
3251 C 94.787 88.089 34.382 C 0.0 **** 0.0
3252 H 94.456 87.392 35.152 H 0.0 **** 0.0
3253 H 94.945 87.549 33.448 H 0.0 **** 0.0
3254 H 95.721 88.557 34.694 H 0.0 **** 0.0
3255 H 94.027 88.856 34.235 H 0.0 **** 0.0
3256 C 47.87 86.571 29.858 C 0.0 **** 0.0
3257 H 47.717 86.387 28.795 H 0.0 **** 0.0
3258 H 46.993 87.071 30.269 H 0.0 **** 0.0
3259 H 48.747 87.205 29.994 H 0.0 **** 0.0
3260 H 48.024 85.623 30.373 H 0.0 **** 0.0
3261 C 75.39 91.817 93.847 C 0.0 **** 0.0
3262 H 76.192 91.669 94.57 H 0.0 **** 0.0
3263 H 74.765 90.924 93.81 H 0.0 **** 0.0
3264 H 75.819 92.001 92.862 H 0.0 **** 0.0
3265 H 74.785 92.673 94.145 H 0.0 **** 0.0
3266 C 1.321 26.575 39.761 C 0.0 **** 0.0
3267 H 0.864 27.45 40.223 H 0.0 **** 0.0
3268 H 1.79 25.962 40.531 H 0.0 **** 0.0
3269 H 2.076 26.897 39.043 H 0.0 **** 0.0
3270 H 0.556 25.993 39.248 H 0.0 **** 0.0
3271 C 68.588 53.148 7.192 C 0.0 **** 0.0
3272 H 68.327 53.08 6.136 H 0.0 **** 0.0
3273 H 69.589 53.567 7.293 H 0.0 **** 0.0
3274 H 68.563 52.153 7.637 H 0.0 **** 0.0
3275 H 67.871 53.792 7.702 H 0.0 **** 0.0
3276 C 26.233 29.215 56.712 C 0.0 **** 0.0
3277 H 26.551 30.045 57.343 H 0.0 **** 0.0
3278 H 27.006 28.447 56.704 H 0.0 **** 0.0
3279 H 26.066 29.575 55.696 H 0.0 **** 0.0
3280 H 25.307 28.795 57.105 H 0.0 **** 0.0
3281 C 96.801 37.81 8.126 C 0.0 **** 0.0
3282 H 95.886 38.36 7.907 H 0.0 **** 0.0
3283 H 96.986 37.083 7.336 H 0.0 **** 0.0
3284 H 96.695 37.293 9.08 H 0.0 **** 0.0
3285 H 97.638 38.507 8.183 H 0.0 **** 0.0
3286 C 51.283 50.842 60.801 C 0.0 **** 0.0
3287 H 50.384 51.404 60.549 H 0.0 **** 0.0
3288 H 52.109 51.178 60.174 H 0.0 **** 0.0
3289 H 51.106 49.78 60.631 H 0.0 **** 0.0
3290 H 51.532 51.005 61.849 H 0.0 **** 0.0
3291 C 94.378 67.643 77.908 C 0.0 **** 0.0
3292 H 95.173 67.793 77.176 H 0.0 **** 0.0
3293 H 93.429 67.973 77.484 H 0.0 **** 0.0
3294 H 94.597 68.222 78.805 H 0.0 **** 0.0
3295 H 94.314 66.586 78.164 H 0.0 **** 0.0
3296 C 41.912 26.409 75.122 C 0.0 **** 0.0
3297 H 41.942 25.644 74.347 H 0.0 **** 0.0
3298 H 42.183 25.966 76.08 H 0.0 **** 0.0
3299 H 40.906 26.824 75.185 H 0.0 **** 0.0
3300 H 42.617 27.203 74.876 H 0.0 **** 0.0
3301 C 89.813 16.363 60.995 C 0.0 **** 0.0
3302 H 89.655 16.961 61.892 H 0.0 **** 0.0
3303 H 90.684 15.723 61.134 H 0.0 **** 0.0
3304 H 89.978 17.023 60.143 H 0.0 **** 0.0
3305 H 88.933 15.746 60.811 H 0.0 **** 0.0
3306 C 20.434 14.479 33.654 C 0.0 **** 0.0
3307 H 19.662 14.084 34.315 H 0.0 **** 0.0
3308 H 20.013 15.273 33.038 H 0.0 **** 0.0
3309 H 20.807 13.68 33.014 H 0.0 **** 0.0
3310 H 21.254 14.878 34.251 H 0.0 **** 0.0
3311 C 90.02 15.078 90.581 C 0.0 **** 0.0
3312 H 90.069 15.816 91.382 H 0.0 **** 0.0
3313 H 90.179 15.572 89.622 H 0.0 **** 0.0
3314 H 89.039 14.602 90.587 H 0.0 **** 0.0
3315 H 90.791 14.324 90.735 H 0.0 **** 0.0
3316 C 46.774 3.264 87.181 C 0.0 **** 0.0
3317 H 46.779 2.949 86.138 H 0.0 **** 0.0
3318 H 45.748 3.441 87.502 H 0.0 **** 0.0
3319 H 47.352 4.182 87.286 H 0.0 **** 0.0
3320 H 47.218 2.482 87.798 H 0.0 **** 0.0
3321 C 43.372 48.42 68.417 C 0.0 **** 0.0
3322 H 42.508 48.618 67.783 H 0.0 **** 0.0
3323 H 43.657 49.333 68.94 H 0.0 **** 0.0
3324 H 44.204 48.079 67.801 H 0.0 **** 0.0
3325 H 43.119 47.648 69.145 H 0.0 **** 0.0
3326 C 35.839 6.671 15.721 C 0.0 **** 0.0
3327 H 34.841 6.282 15.518 H 0.0 **** 0.0
3328 H 36.14 7.339 14.913 H 0.0 **** 0.0
3329 H 36.545 5.843 15.789 H 0.0 **** 0.0
3330 H 35.83 7.22 16.663 H 0.0 **** 0.0
3331 C 14.403 49.39 98.137 C 0.0 **** 0.0
3332 H 14.848 49.918 98.98 H 0.0 **** 0.0
3333 H 13.321 49.519 98.157 H 0.0 **** 0.0
3334 H 14.644 48.329 98.205 H 0.0 **** 0.0
3335 H 14.8 49.794 97.205 H 0.0 **** 0.0
3336 C 48.325 79.287 52.365 C 0.0 **** 0.0
3337 H 48.666 79.638 53.339 H 0.0 **** 0.0
3338 H 48.731 78.294 52.175 H 0.0 **** 0.0
3339 H 48.668 79.975 51.592 H 0.0 **** 0.0
3340 H 47.236 79.243 52.356 H 0.0 **** 0.0
3341 C 89.842 6.5 8.761 C 0.0 **** 0.0
3342 H 89.23 6.158 7.926 H 0.0 **** 0.0
3343 H 89.988 7.578 8.686 H 0.0 **** 0.0
3344 H 90.81 5.999 8.73 H 0.0 **** 0.0
3345 H 89.341 6.265 9.699 H 0.0 **** 0.0
3346 C 92.458 46.37 59.715 C 0.0 **** 0.0
3347 H 92.862 46.021 60.665 H 0.0 **** 0.0
3348 H 91.521 45.853 59.507 H 0.0 **** 0.0
3349 H 93.173 46.162 58.919 H 0.0 **** 0.0
3350 H 92.277 47.443 59.77 H 0.0 **** 0.0
3351 C 23.1 98.478 13.456 C 0.0 **** 0.0
3352 H 23.171 98.518 12.369 H 0.0 **** 0.0
3353 H 22.157 98.923 13.774 H 0.0 **** 0.0
3354 H 23.93 99.031 13.895 H 0.0 **** 0.0
3355 H 23.141 97.44 13.785 H 0.0 **** 0.0
3356 C 35.03 39.984 91.225 C 0.0 **** 0.0
3357 H 35.119 40.3 92.264 H 0.0 **** 0.0
3358 H 34.031 40.219 90.858 H 0.0 **** 0.0
3359 H 35.2 38.91 91.156 H 0.0 **** 0.0
3360 H 35.771 40.508 90.621 H 0.0 **** 0.0
3361 C 83.799 58.656 76.135 C 0.0 **** 0.0
3362 H 83.807 58.541 77.219 H 0.0 **** 0.0
3363 H 83.576 57.696 75.67 H 0.0 **** 0.0
3364 H 84.775 59.005 75.8 H 0.0 **** 0.0
3365 H 83.037 59.383 75.854 H 0.0 **** 0.0
3366 C 15.983 83.14 39.158 C 0.0 **** 0.0
3367 H 14.938 82.853 39.042 H 0.0 **** 0.0
3368 H 16.521 82.934 38.232 H 0.0 **** 0.0
3369 H 16.428 82.569 39.972 H 0.0 **** 0.0
3370 H 16.044 84.205 39.385 H 0.0 **** 0.0
3371 C 1.785 82.538 32.857 C 0.0 **** 0.0
3372 H 0.828 82.141 33.195 H 0.0 **** 0.0
3373 H 2.341 81.755 32.341 H 0.0 **** 0.0
3374 H 2.359 82.885 33.716 H 0.0 **** 0.0
3375 H 1.613 83.371 32.175 H 0.0 **** 0.0
3376 C 59.509 27.2 50.004 C 0.0 **** 0.0
3377 H 60.307 26.506 50.268 H 0.0 **** 0.0
3378 H 59.505 27.356 48.926 H 0.0 **** 0.0
3379 H 59.674 28.152 50.509 H 0.0 **** 0.0
3380 H 58.55 26.785 50.315 H 0.0 **** 0.0
3381 C 0.47 80.792 37.118 C 0.0 **** 0.0
3382 H 0.209 81.824 36.884 H 0.0 **** 0.0
3383 H 0.115 80.138 36.321 H 0.0 **** 0.0
3384 H 0.002 80.503 38.06 H 0.0 **** 0.0
3385 H 1.552 80.702 37.207 H 0.0 **** 0.0
3386 C 85.908 16.633 51.436 C 0.0 **** 0.0
3387 H 85.867 17.27 52.32 H 0.0 **** 0.0
3388 H 86.423 15.704 51.681 H 0.0 **** 0.0
3389 H 86.448 17.149 50.641 H 0.0 **** 0.0
3390 H 84.895 16.411 51.102 H 0.0 **** 0.0
3391 C 75.688 33.916 17.056 C 0.0 **** 0.0
3392 H 76.188 34.552 17.787 H 0.0 **** 0.0
3393 H 75.223 34.538 16.291 H 0.0 **** 0.0
3394 H 74.924 33.321 17.556 H 0.0 **** 0.0
3395 H 76.419 33.253 16.592 H 0.0 **** 0.0
3396 C 96.871 31.462 5.482 C 0.0 **** 0.0
3397 H 96.385 32.048 4.703 H 0.0 **** 0.0
3398 H 96.138 31.186 6.24 H 0.0 **** 0.0
3399 H 97.664 32.053 5.941 H 0.0 **** 0.0
3400 H 97.298 30.56 5.044 H 0.0 **** 0.0
3401 C 78.724 9.193 44.9 C 0.0 **** 0.0
3402 H 79.713 8.769 44.724 H 0.0 **** 0.0
3403 H 78.804 10.276 44.989 H 0.0 **** 0.0
3404 H 78.312 8.781 45.821 H 0.0 **** 0.0
3405 H 78.069 8.944 44.065 H 0.0 **** 0.0
3406 C 76.557 78.19 87.138 C 0.0 **** 0.0
3407 H 76.568 77.974 86.07 H 0.0 **** 0.0
3408 H 76.808 79.239 87.298 H 0.0 **** 0.0
3409 H 77.287 77.559 87.644 H 0.0 **** 0.0
3410 H 75.563 77.989 87.538 H 0.0 **** 0.0
3411 C 24.559 52.032 45.404 C 0.0 **** 0.0
3412 H 24.607 51.916 44.321 H 0.0 **** 0.0
3413 H 25.344 52.715 45.731 H 0.0 **** 0.0
3414 H 24.701 51.061 45.88 H 0.0 **** 0.0
3415 H 23.586 52.435 45.684 H 0.0 **** 0.0
3416 C 81.701 92.951 66.464 C 0.0 **** 0.0
3417 H 82.386 92.312 67.02 H 0.0 **** 0.0
3418 H 80.81 93.138 67.064 H 0.0 **** 0.0
3419 H 81.416 92.457 65.535 H 0.0 **** 0.0
3420 H 82.191 93.898 66.236 H 0.0 **** 0.0
3421 C 5.704 71.165 78.315 C 0.0 **** 0.0
3422 H 5.593 70.855 79.354 H 0.0 **** 0.0
3423 H 4.837 70.833 77.743 H 0.0 **** 0.0
3424 H 6.607 70.721 77.898 H 0.0 **** 0.0
3425 H 5.777 72.252 78.266 H 0.0 **** 0.0
3426 C 84.794 83.969 34.138 C 0.0 **** 0.0
3427 H 84.122 83.937 33.281 H 0.0 **** 0.0
3428 H 84.219 84.163 35.044 H 0.0 **** 0.0
3429 H 85.527 84.762 33.996 H 0.0 **** 0.0
3430 H 85.308 83.012 34.232 H 0.0 **** 0.0
3431 C 55.236 27.431 87.899 C 0.0 **** 0.0
3432 H 55.477 28.492 87.962 H 0.0 **** 0.0
3433 H 56.081 26.892 87.47 H 0.0 **** 0.0
3434 H 54.359 27.295 87.266 H 0.0 **** 0.0
3435 H 55.027 27.045 88.897 H 0.0 **** 0.0
3436 C 37.777 55.24 80.125 C 0.0 **** 0.0
3437 H 37.679 54.266 79.644 H 0.0 **** 0.0
3438 H 38.157 55.964 79.404 H 0.0 **** 0.0
3439 H 38.469 55.163 80.963 H 0.0 **** 0.0
3440 H 36.802 55.565 80.488 H 0.0 **** 0.0
3441 C 37.257 69.277 88.022 C 0.0 **** 0.0
3442 H 36.794 68.439 88.542 H 0.0 **** 0.0
3443 H 38.3 69.042 87.811 H 0.0 **** 0.0
3444 H 37.205 70.167 88.65 H 0.0 **** 0.0
3445 H 36.729 69.462 87.087 H 0.0 **** 0.0
3446 C 47.932 97.363 4.328 C 0.0 **** 0.0
3447 H 48.044 97.331 3.244 H 0.0 **** 0.0
3448 H 47.837 98.399 4.653 H 0.0 **** 0.0
3449 H 48.807 96.913 4.797 H 0.0 **** 0.0
3450 H 47.04 96.808 4.617 H 0.0 **** 0.0
3451 C 61.413 19.754 37.284 C 0.0 **** 0.0
3452 H 62.377 19.296 37.506 H 0.0 **** 0.0
3453 H 61.503 20.374 36.392 H 0.0 **** 0.0
3454 H 61.104 20.373 38.127 H 0.0 **** 0.0
3455 H 60.671 18.975 37.114 H 0.0 **** 0.0
3456 C 81.694 61.138 43.193 C 0.0 **** 0.0
3457 H 81.694 61.138 42.103 H 0.0 **** 0.0
3458 H 82.718 61.231 43.556 H 0.0 **** 0.0
3459 H 81.263 60.205 43.556 H 0.0 **** 0.0
3460 H 81.102 61.978 43.556 H 0.0 **** 0.0
3461 C 66.964 6.944 61.496 C 0.0 **** 0.0
3462 H 67.148 6.908 60.422 H 0.0 **** 0.0
3463 H 67.261 7.919 61.883 H 0.0 **** 0.0
3464 H 67.544 6.165 61.99 H 0.0 **** 0.0
3465 H 65.903 6.784 61.688 H 0.0 **** 0.0
3466 C 45.917 0.933 59.453 C 0.0 **** 0.0
3467 H 44.851 1.152 59.397 H 0.0 **** 0.0
3468 H 46.147 0.5 60.427 H 0.0 **** 0.0
3469 H 46.485 1.854 59.321 H 0.0 **** 0.0
3470 H 46.185 0.226 58.668 H 0.0 **** 0.0
3471 C 9.696 37.567 38.507 C 0.0 **** 0.0
3472 H 9.711 36.518 38.801 H 0.0 **** 0.0
3473 H 10.276 38.153 39.221 H 0.0 **** 0.0
3474 H 8.667 37.926 38.492 H 0.0 **** 0.0
3475 H 10.132 37.672 37.513 H 0.0 **** 0.0
3476 C 37.572 89.358 15.848 C 0.0 **** 0.0
3477 H 36.493 89.324 16.002 H 0.0 **** 0.0
3478 H 37.913 88.397 15.462 H 0.0 **** 0.0
3479 H 38.067 89.565 16.797 H 0.0 **** 0.0
3480 H 37.812 90.144 15.133 H 0.0 **** 0.0
3481 C 47.468 70.386 6.402 C 0.0 **** 0.0
3482 H 47.087 71.407 6.39 H 0.0 **** 0.0
3483 H 46.632 69.687 6.435 H 0.0 **** 0.0
3484 H 48.098 70.243 7.28 H 0.0 **** 0.0
3485 H 48.056 70.208 5.501 H 0.0 **** 0.0
3486 C 25.73 79.842 36.993 C 0.0 **** 0.0
3487 H 26.302 79.242 37.7 H 0.0 **** 0.0
3488 H 25.198 80.627 37.53 H 0.0 **** 0.0
3489 H 25.013 79.206 36.474 H 0.0 **** 0.0
3490 H 26.408 80.292 36.268 H 0.0 **** 0.0
3491 C 9.872 18.038 56.42 C 0.0 **** 0.0
3492 H 9.125 17.421 56.918 H 0.0 **** 0.0
3493 H 10.209 18.82 57.101 H 0.0 **** 0.0
3494 H 9.434 18.493 55.532 H 0.0 **** 0.0
3495 H 10.721 17.418 56.131 H 0.0 **** 0.0
3496 C 85.307 37.864 22.01 C 0.0 **** 0.0
3497 H 84.53 37.12 21.833 H 0.0 **** 0.0
3498 H 84.904 38.67 22.624 H 0.0 **** 0.0
3499 H 85.647 38.268 21.056 H 0.0 **** 0.0
3500 H 86.146 37.398 22.527 H 0.0 **** 0.0
3501 C 32.182 54.146 45.923 C 0.0 **** 0.0
3502 H 31.652 54.978 46.386 H 0.0 **** 0.0
3503 H 33.179 54.064 46.357 H 0.0 **** 0.0
3504 H 32.266 54.321 44.85 H 0.0 **** 0.0
3505 H 31.632 53.222 46.099 H 0.0 **** 0.0
3506 C 63.641 63.428 30.98 C 0.0 **** 0.0
3507 H 62.664 63.223 31.418 H 0.0 **** 0.0
3508 H 64.126 64.231 31.534 H 0.0 **** 0.0
3509 H 63.516 63.728 29.939 H 0.0 **** 0.0
3510 H 64.256 62.53 31.028 H 0.0 **** 0.0
3511 C 63.521 64.972 85.164 C 0.0 **** 0.0
3512 H 63.859 65.63 85.965 H 0.0 **** 0.0
3513 H 64.121 65.148 84.272 H 0.0 **** 0.0
3514 H 62.473 65.177 84.945 H 0.0 **** 0.0
3515 H 63.63 63.934 85.478 H 0.0 **** 0.0
3516 C 23.243 1.411 14.36 C 0.0 **** 0.0
3517 H 23.205 2.176 15.135 H 0.0 **** 0.0
3518 H 23.519 0.456 14.806 H 0.0 **** 0.0
3519 H 23.984 1.69 13.61 H 0.0 **** 0.0
3520 H 22.264 1.323 13.889 H 0.0 **** 0.0
3521 C 3.766 44.469 84.411 C 0.0 **** 0.0
3522 H 3.656 45.549 84.309 H 0.0 **** 0.0
3523 H 4.705 44.246 84.918 H 0.0 **** 0.0
3524 H 3.768 44.009 83.422 H 0.0 **** 0.0
3525 H 2.934 44.073 84.994 H 0.0 **** 0.0
3526 C 32.04 1.612 30.123 C 0.0 **** 0.0
3527 H 32.885 2.098 30.612 H 0.0 **** 0.0
3528 H 31.506 0.997 30.848 H 0.0 **** 0.0
3529 H 32.403 0.983 29.31 H 0.0 **** 0.0
3530 H 31.366 2.37 29.724 H 0.0 **** 0.0
3531 C 31.705 42.645 63.267 C 0.0 **** 0.0
3532 H 31.997 41.695 62.821 H 0.0 **** 0.0
3533 H 31.255 42.464 64.244 H 0.0 **** 0.0
3534 H 30.982 43.143 62.621 H 0.0 **** 0.0
3535 H 32.585 43.277 63.384 H 0.0 **** 0.0
3536 C 74.673 48.027 16.376 C 0.0 **** 0.0
3537 H 75.266 48.147 15.469 H 0.0 **** 0.0
3538 H 73.653 48.365 16.19 H 0.0 **** 0.0
3539 H 75.113 48.619 17.178 H 0.0 **** 0.0
3540 H 74.661 46.976 16.664 H 0.0 **** 0.0
3541 C 18.605 95.093 84.331 C 0.0 **** 0.0
3542 H 18.133 94.113 84.264 H 0.0 **** 0.0
3543 H 17.884 95.863 84.058 H 0.0 **** 0.0
3544 H 19.456 95.133 83.651 H 0.0 **** 0.0
3545 H 18.948 95.261 85.352 H 0.0 **** 0.0
3546 C 80.706 68.317 8.874 C 0.0 **** 0.0
3547 H 81.46 68.112 8.114 H 0.0 **** 0.0
3548 H 79.747 68.509 8.392 H 0.0 **** 0.0
3549 H 81.004 69.192 9.453 H 0.0 **** 0.0
3550 H 80.615 67.457 9.536 H 0.0 **** 0.0
3551 C 72.525 44.663 24.418 C 0.0 **** 0.0
3552 H 72.028 45.378 25.074 H 0.0 **** 0.0
3553 H 72.142 44.776 23.403 H 0.0 **** 0.0
3554 H 72.33 43.651 24.77 H 0.0 **** 0.0
3555 H 73.599 44.85 24.425 H 0.0 **** 0.0
3556 C 54.276 1.941 46.525 C 0.0 **** 0.0
3557 H 53.818 1.775 45.55 H 0.0 **** 0.0
3558 H 53.53 2.341 47.213 H 0.0 **** 0.0
3559 H 55.096 2.651 46.425 H 0.0 **** 0.0
3560 H 54.658 0.996 46.912 H 0.0 **** 0.0
3561 C 46.056 44.506 19.467 C 0.0 **** 0.0
3562 H 45.79 44.945 18.505 H 0.0 **** 0.0
3563 H 46.159 45.296 20.211 H 0.0 **** 0.0
3564 H 47.0 43.97 19.372 H 0.0 **** 0.0
3565 H 45.275 43.813 19.779 H 0.0 **** 0.0
3566 C 81.855 70.028 88.256 C 0.0 **** 0.0
3567 H 81.939 70.01 87.169 H 0.0 **** 0.0
3568 H 82.609 69.369 88.689 H 0.0 **** 0.0
3569 H 80.862 69.687 88.549 H 0.0 **** 0.0
3570 H 82.011 71.045 88.615 H 0.0 **** 0.0
3571 C 86.466 53.254 49.76 C 0.0 **** 0.0
3572 H 86.617 54.244 50.19 H 0.0 **** 0.0
3573 H 87.306 52.611 50.023 H 0.0 **** 0.0
3574 H 86.396 53.336 48.675 H 0.0 **** 0.0
3575 H 85.543 52.825 50.152 H 0.0 **** 0.0
3576 C 38.309 28.126 1.102 C 0.0 **** 0.0
3577 H 38.359 28.253 2.183 H 0.0 **** 0.0
3578 H 39.177 27.561 0.762 H 0.0 **** 0.0
3579 H 38.3 29.104 0.621 H 0.0 **** 0.0
3580 H 37.398 27.586 0.842 H 0.0 **** 0.0
3581 C 59.823 38.777 61.817 C 0.0 **** 0.0
3582 H 59.688 38.095 62.657 H 0.0 **** 0.0
3583 H 60.836 39.181 61.837 H 0.0 **** 0.0
3584 H 59.104 39.592 61.892 H 0.0 **** 0.0
3585 H 59.666 38.237 60.883 H 0.0 **** 0.0
3586 C 51.805 54.407 36.621 C 0.0 **** 0.0
3587 H 51.613 53.61 35.903 H 0.0 **** 0.0
3588 H 50.872 54.923 36.849 H 0.0 **** 0.0
3589 H 52.518 55.114 36.196 H 0.0 **** 0.0
3590 H 52.218 53.98 37.535 H 0.0 **** 0.0
3591 C 61.924 86.787 57.365 C 0.0 **** 0.0
3592 H 61.615 86.036 56.637 H 0.0 **** 0.0
3593 H 62.977 86.646 57.607 H 0.0 **** 0.0
3594 H 61.325 86.682 58.27 H 0.0 **** 0.0
3595 H 61.777 87.782 56.945 H 0.0 **** 0.0
3596 C 65.902 7.739 39.721 C 0.0 **** 0.0
3597 H 65.801 8.129 40.734 H 0.0 **** 0.0
3598 H 66.834 7.18 39.638 H 0.0 **** 0.0
3599 H 65.909 8.567 39.012 H 0.0 **** 0.0
3600 H 65.062 7.08 39.5 H 0.0 **** 0.0
3601 C 73.943 54.526 79.585 C 0.0 **** 0.0
3602 H 74.865 54.986 79.23 H 0.0 **** 0.0
3603 H 74.007 53.444 79.467 H 0.0 **** 0.0
3604 H 73.101 54.906 79.006 H 0.0 **** 0.0
3605 H 73.798 54.769 80.638 H 0.0 **** 0.0
3606 C 52.479 73.559 14.36 C 0.0 **** 0.0
3607 H 53.116 73.467 15.24 H 0.0 **** 0.0
3608 H 53.075 73.907 13.515 H 0.0 **** 0.0
3609 H 51.683 74.276 14.562 H 0.0 **** 0.0
3610 H 52.044 72.589 14.123 H 0.0 **** 0.0
3611 C 53.658 50.204 84.265 C 0.0 **** 0.0
3612 H 52.92 50.545 84.99 H 0.0 **** 0.0
3613 H 53.53 49.136 84.091 H 0.0 **** 0.0
3614 H 54.66 50.392 84.651 H 0.0 **** 0.0
3615 H 53.523 50.744 83.328 H 0.0 **** 0.0
3616 C 69.173 8.818 4.407 C 0.0 **** 0.0
3617 H 69.694 8.535 3.492 H 0.0 **** 0.0
3618 H 68.926 7.922 4.976 H 0.0 **** 0.0
3619 H 68.257 9.351 4.152 H 0.0 **** 0.0
3620 H 69.815 9.464 5.005 H 0.0 **** 0.0
3621 C 56.846 44.978 54.609 C 0.0 **** 0.0
3622 H 57.045 46.026 54.837 H 0.0 **** 0.0
3623 H 55.931 44.666 55.113 H 0.0 **** 0.0
3624 H 57.679 44.366 54.954 H 0.0 **** 0.0
3625 H 56.728 44.857 53.532 H 0.0 **** 0.0
3626 C 75.32 87.378 98.309 C 0.0 **** 0.0
3627 H 75.444 87.238 97.235 H 0.0 **** 0.0
3628 H 74.855 86.491 98.74 H 0.0 **** 0.0
3629 H 74.685 88.246 98.491 H 0.0 **** 0.0
3630 H 76.295 87.538 98.769 H 0.0 **** 0.0
3631 C 74.489 20.46 26.959 C 0.0 **** 0.0
3632 H 74.845 20.16 25.973 H 0.0 **** 0.0
3633 H 74.865 21.456 27.193 H 0.0 **** 0.0
3634 H 74.849 19.751 27.706 H 0.0 **** 0.0
3635 H 73.399 20.471 26.964 H 0.0 **** 0.0
3636 C 84.249 43.579 75.144 C 0.0 **** 0.0
3637 H 85.107 43.825 74.519 H 0.0 **** 0.0
3638 H 83.897 42.577 74.899 H 0.0 **** 0.0
3639 H 83.451 44.299 74.965 H 0.0 **** 0.0
3640 H 84.543 43.615 76.193 H 0.0 **** 0.0
3641 C 41.971 55.953 5.973 C 0.0 **** 0.0
3642 H 41.172 55.25 6.208 H 0.0 **** 0.0
3643 H 42.699 55.959 6.785 H 0.0 **** 0.0
3644 H 41.552 56.952 5.852 H 0.0 **** 0.0
3645 H 42.461 55.65 5.048 H 0.0 **** 0.0
3646 C 9.86 40.745 60.599 C 0.0 **** 0.0
3647 H 8.967 41.343 60.417 H 0.0 **** 0.0
3648 H 10.63 41.015 59.876 H 0.0 **** 0.0
3649 H 9.616 39.688 60.494 H 0.0 **** 0.0
3650 H 10.225 40.935 61.608 H 0.0 **** 0.0
3651 C 76.056 48.95 56.94 C 0.0 **** 0.0
3652 H 75.541 49.063 55.987 H 0.0 **** 0.0
3653 H 75.655 49.667 57.658 H 0.0 **** 0.0
3654 H 77.122 49.132 56.801 H 0.0 **** 0.0
3655 H 75.906 47.937 57.316 H 0.0 **** 0.0
3656 C 84.12 30.415 87.249 C 0.0 **** 0.0
3657 H 85.103 30.881 87.19 H 0.0 **** 0.0
3658 H 84.144 29.609 87.982 H 0.0 **** 0.0
3659 H 83.85 30.011 86.273 H 0.0 **** 0.0
3660 H 83.383 31.16 87.551 H 0.0 **** 0.0
3661 C 29.139 26.271 32.463 C 0.0 **** 0.0
3662 H 29.964 26.822 32.913 H 0.0 **** 0.0
3663 H 28.931 25.38 33.055 H 0.0 **** 0.0
3664 H 29.409 25.978 31.448 H 0.0 **** 0.0
3665 H 28.252 26.905 32.434 H 0.0 **** 0.0
3666 C 75.921 2.659 25.359 C 0.0 **** 0.0
3667 H 76.389 2.907 24.406 H 0.0 **** 0.0
3668 H 76.587 2.017 25.935 H 0.0 **** 0.0
3669 H 74.981 2.137 25.176 H 0.0 **** 0.0
3670 H 75.725 3.575 25.916 H 0.0 **** 0.0
3671 C 29.046 85.415 42.704 C 0.0 **** 0.0
3672 H 29.011 85.811 43.72 H 0.0 **** 0.0
3673 H 29.328 84.362 42.735 H 0.0 **** 0.0
3674 H 29.781 85.972 42.123 H 0.0 **** 0.0
3675 H 28.064 85.515 42.242 H 0.0 **** 0.0
3676 C 89.858 87.817 67.568 C 0.0 **** 0.0
3677 H 90.408 87.4 68.411 H 0.0 **** 0.0
3678 H 90.561 88.161 66.809 H 0.0 **** 0.0
3679 H 89.252 88.657 67.91 H 0.0 **** 0.0
3680 H 89.209 87.051 67.143 H 0.0 **** 0.0
3681 C 56.362 2.445 10.647 C 0.0 **** 0.0
3682 H 57.353 2.323 11.083 H 0.0 **** 0.0
3683 H 56.407 2.235 9.579 H 0.0 **** 0.0
3684 H 56.02 3.468 10.803 H 0.0 **** 0.0
3685 H 55.668 1.754 11.125 H 0.0 **** 0.0
3686 C 72.646 14.419 22.101 C 0.0 **** 0.0
3687 H 72.513 15.299 22.729 H 0.0 **** 0.0
3688 H 72.603 14.712 21.052 H 0.0 **** 0.0
3689 H 71.855 13.7 22.311 H 0.0 **** 0.0
3690 H 73.615 13.966 22.312 H 0.0 **** 0.0
3691 C 34.969 81.481 11.36 C 0.0 **** 0.0
3692 H 34.74 80.452 11.637 H 0.0 **** 0.0
3693 H 36.05 81.617 11.331 H 0.0 **** 0.0
3694 H 34.536 82.16 12.094 H 0.0 **** 0.0
3695 H 34.549 81.694 10.377 H 0.0 **** 0.0
3696 C 86.332 37.199 4.089 C 0.0 **** 0.0
3697 H 85.966 37.721 3.205 H 0.0 **** 0.0
3698 H 86.661 36.198 3.81 H 0.0 **** 0.0
3699 H 85.532 37.127 4.826 H 0.0 **** 0.0
3700 H 87.169 37.752 4.516 H 0.0 **** 0.0
3701 C 4.732 96.786 32.439 C 0.0 **** 0.0
3702 H 5.521 96.859 31.69 H 0.0 **** 0.0
3703 H 5.164 96.489 33.394 H 0.0 **** 0.0
3704 H 4.0 96.042 32.123 H 0.0 **** 0.0
3705 H 4.243 97.754 32.546 H 0.0 **** 0.0
3706 C 34.851 72.569 80.03 C 0.0 **** 0.0
3707 H 34.249 71.677 79.857 H 0.0 **** 0.0
3708 H 34.237 73.333 80.508 H 0.0 **** 0.0
3709 H 35.224 72.946 79.077 H 0.0 **** 0.0
3710 H 35.692 72.32 80.677 H 0.0 **** 0.0
3711 C 44.813 6.216 27.999 C 0.0 **** 0.0
3712 H 43.839 5.734 27.91 H 0.0 **** 0.0
3713 H 45.424 5.962 27.132 H 0.0 **** 0.0
3714 H 45.308 5.871 28.906 H 0.0 **** 0.0
3715 H 44.68 7.297 28.046 H 0.0 **** 0.0
3716 C 0.837 56.758 54.44 C 0.0 **** 0.0
3717 H 0.491 56.637 55.466 H 0.0 **** 0.0
3718 H 1.609 57.527 54.406 H 0.0 **** 0.0
3719 H 0.001 57.054 53.807 H 0.0 **** 0.0
3720 H 1.248 55.814 54.082 H 0.0 **** 0.0
3721 C 59.385 32.145 22.94 C 0.0 **** 0.0
3722 H 58.623 32.892 23.161 H 0.0 **** 0.0
3723 H 59.684 31.647 23.862 H 0.0 **** 0.0
3724 H 60.252 32.632 22.492 H 0.0 **** 0.0
3725 H 58.982 31.41 22.243 H 0.0 **** 0.0
3726 C 62.919 64.253 92.036 C 0.0 **** 0.0
3727 H 62.993 65.215 92.543 H 0.0 **** 0.0
3728 H 63.299 64.348 91.019 H 0.0 **** 0.0
3729 H 61.877 63.937 92.008 H 0.0 **** 0.0
3730 H 63.509 63.512 92.576 H 0.0 **** 0.0
3731 C 21.856 45.855 58.025 C 0.0 **** 0.0
3732 H 21.802 45.003 57.346 H 0.0 **** 0.0
3733 H 22.332 46.694 57.517 H 0.0 **** 0.0
3734 H 22.442 45.582 58.903 H 0.0 **** 0.0
3735 H 20.85 46.138 58.333 H 0.0 **** 0.0
3736 C 83.631 45.048 70.354 C 0.0 **** 0.0
3737 H 83.227 45.762 69.636 H 0.0 **** 0.0
3738 H 84.535 44.595 69.946 H 0.0 **** 0.0
3739 H 82.892 44.272 70.55 H 0.0 **** 0.0
3740 H 83.871 45.565 71.284 H 0.0 **** 0.0
3741 C 52.906 75.72 31.326 C 0.0 **** 0.0
3742 H 52.971 75.965 32.386 H 0.0 **** 0.0
3743 H 52.399 74.762 31.206 H 0.0 **** 0.0
3744 H 53.909 75.655 30.906 H 0.0 **** 0.0
3745 H 52.344 76.496 30.807 H 0.0 **** 0.0
3746 C 83.077 85.872 91.965 C 0.0 **** 0.0
3747 H 83.128 85.691 93.039 H 0.0 **** 0.0
3748 H 84.036 86.255 91.616 H 0.0 **** 0.0
3749 H 82.295 86.602 91.757 H 0.0 **** 0.0
3750 H 82.849 84.938 91.451 H 0.0 **** 0.0
3751 C 30.582 25.43 38.838 C 0.0 **** 0.0
3752 H 31.486 25.85 39.279 H 0.0 **** 0.0
3753 H 30.812 24.463 38.39 H 0.0 **** 0.0
3754 H 30.205 26.106 38.071 H 0.0 **** 0.0
3755 H 29.827 25.301 39.613 H 0.0 **** 0.0
3756 C 65.042 36.183 55.001 C 0.0 **** 0.0
3757 H 65.848 35.453 55.084 H 0.0 **** 0.0
3758 H 64.369 36.077 55.852 H 0.0 **** 0.0
3759 H 64.491 36.011 54.077 H 0.0 **** 0.0
3760 H 65.463 37.188 54.992 H 0.0 **** 0.0
3761 C 61.769 31.042 55.666 C 0.0 **** 0.0
3762 H 62.443 31.785 55.241 H 0.0 **** 0.0
3763 H 62.153 30.712 56.631 H 0.0 **** 0.0
3764 H 61.699 30.188 54.992 H 0.0 **** 0.0
3765 H 60.78 31.481 55.799 H 0.0 **** 0.0
3766 C 57.663 83.039 22.071 C 0.0 **** 0.0
3767 H 57.96 83.291 23.089 H 0.0 **** 0.0
3768 H 58.502 83.21 21.395 H 0.0 **** 0.0
3769 H 56.822 83.665 21.773 H 0.0 **** 0.0
3770 H 57.369 81.99 22.028 H 0.0 **** 0.0
3771 C 69.23 87.707 20.006 C 0.0 **** 0.0
3772 H 69.345 87.696 21.09 H 0.0 **** 0.0
3773 H 68.174 87.8 19.753 H 0.0 **** 0.0
3774 H 69.624 86.78 19.589 H 0.0 **** 0.0
3775 H 69.779 88.553 19.592 H 0.0 **** 0.0
3776 C 31.949 34.406 64.252 C 0.0 **** 0.0
3777 H 33.03 34.551 64.251 H 0.0 **** 0.0
3778 H 31.456 35.349 64.015 H 0.0 **** 0.0
3779 H 31.63 34.066 65.237 H 0.0 **** 0.0
3780 H 31.683 33.658 63.506 H 0.0 **** 0.0
3781 C 27.486 93.212 39.861 C 0.0 **** 0.0
3782 H 26.633 93.744 39.439 H 0.0 **** 0.0
3783 H 28.259 93.929 40.139 H 0.0 **** 0.0
3784 H 27.883 92.518 39.12 H 0.0 **** 0.0
3785 H 27.168 92.659 40.745 H 0.0 **** 0.0
3786 C 84.479 3.332 20.738 C 0.0 **** 0.0
3787 H 85.361 2.771 20.43 H 0.0 **** 0.0
3788 H 84.595 3.651 21.774 H 0.0 **** 0.0
3789 H 83.596 2.699 20.648 H 0.0 **** 0.0
3790 H 84.365 4.208 20.099 H 0.0 **** 0.0
3791 C 78.33 64.173 19.331 C 0.0 **** 0.0
3792 H 79.012 63.639 18.669 H 0.0 **** 0.0
3793 H 77.308 63.84 19.145 H 0.0 **** 0.0
3794 H 78.403 65.244 19.14 H 0.0 **** 0.0
3795 H 78.596 63.969 20.368 H 0.0 **** 0.0
3796 C 5.382 11.529 29.485 C 0.0 **** 0.0
3797 H 5.739 11.925 28.534 H 0.0 **** 0.0
3798 H 6.135 10.863 29.907 H 0.0 **** 0.0
3799 H 4.457 10.975 29.323 H 0.0 **** 0.0
3800 H 5.197 12.352 30.175 H 0.0 **** 0.0
3801 C 29.1 26.301 54.176 C 0.0 **** 0.0
3802 H 29.865 25.644 54.589 H 0.0 **** 0.0
3803 H 28.254 26.35 54.863 H 0.0 **** 0.0
3804 H 28.766 25.909 53.215 H 0.0 **** 0.0
3805 H 29.514 27.299 54.037 H 0.0 **** 0.0
3806 C 31.83 39.578 82.667 C 0.0 **** 0.0
3807 H 32.38 39.344 81.756 H 0.0 **** 0.0
3808 H 31.143 38.763 82.895 H 0.0 **** 0.0
3809 H 31.267 40.5 82.526 H 0.0 **** 0.0
3810 H 32.531 39.703 83.492 H 0.0 **** 0.0
3811 C 51.048 29.78 15.192 C 0.0 **** 0.0
3812 H 50.527 30.591 14.682 H 0.0 **** 0.0
3813 H 50.563 28.833 14.955 H 0.0 **** 0.0
3814 H 51.013 29.947 16.269 H 0.0 **** 0.0
3815 H 52.086 29.751 14.862 H 0.0 **** 0.0
3816 C 19.909 36.611 45.084 C 0.0 **** 0.0
3817 H 20.089 36.585 44.009 H 0.0 **** 0.0
3818 H 19.815 37.646 45.411 H 0.0 **** 0.0
3819 H 20.744 36.14 45.603 H 0.0 **** 0.0
3820 H 18.99 36.072 45.311 H 0.0 **** 0.0
3821 C 10.871 34.854 45.132 C 0.0 **** 0.0
3822 H 11.272 35.596 44.442 H 0.0 **** 0.0
3823 H 9.782 34.913 45.137 H 0.0 **** 0.0
3824 H 11.25 35.05 46.135 H 0.0 **** 0.0
3825 H 11.18 33.858 44.815 H 0.0 **** 0.0
3826 C 51.936 92.852 93.327 C 0.0 **** 0.0
3827 H 52.312 92.541 94.302 H 0.0 **** 0.0
3828 H 52.775 93.103 92.678 H 0.0 **** 0.0
3829 H 51.295 93.726 93.447 H 0.0 **** 0.0
3830 H 51.362 92.039 92.883 H 0.0 **** 0.0
3831 C 15.934 73.677 43.847 C 0.0 **** 0.0
3832 H 16.593 74.369 43.322 H 0.0 **** 0.0
3833 H 15.403 73.06 43.121 H 0.0 **** 0.0
3834 H 15.215 74.241 44.44 H 0.0 **** 0.0
3835 H 16.526 73.039 44.503 H 0.0 **** 0.0
3836 C 69.299 60.988 6.26 C 0.0 **** 0.0
3837 H 70.034 61.446 5.599 H 0.0 **** 0.0
3838 H 68.657 60.322 5.683 H 0.0 **** 0.0
3839 H 68.692 61.766 6.723 H 0.0 **** 0.0
3840 H 69.812 60.418 7.034 H 0.0 **** 0.0
3841 C 12.263 53.373 60.388 C 0.0 **** 0.0
3842 H 12.626 53.317 61.414 H 0.0 **** 0.0
3843 H 11.173 53.371 60.388 H 0.0 **** 0.0
3844 H 12.628 52.513 59.826 H 0.0 **** 0.0
3845 H 12.625 54.29 59.924 H 0.0 **** 0.0
3846 C 31.487 37.108 93.098 C 0.0 **** 0.0
3847 H 30.655 37.197 93.798 H 0.0 **** 0.0
3848 H 31.4 36.171 92.549 H 0.0 **** 0.0
3849 H 32.427 37.122 93.649 H 0.0 **** 0.0
3850 H 31.463 37.943 92.398 H 0.0 **** 0.0
3851 C 61.17 34.229 36.734 C 0.0 **** 0.0
3852 H 61.185 33.696 37.685 H 0.0 **** 0.0
3853 H 60.177 34.647 36.568 H 0.0 **** 0.0
3854 H 61.414 33.538 35.927 H 0.0 **** 0.0
3855 H 61.905 35.033 36.757 H 0.0 **** 0.0
3856 C 14.509 86.604 21.666 C 0.0 **** 0.0
3857 H 14.648 86.22 20.655 H 0.0 **** 0.0
3858 H 14.476 87.693 21.64 H 0.0 **** 0.0
3859 H 15.338 86.279 22.294 H 0.0 **** 0.0
3860 H 13.573 86.221 22.073 H 0.0 **** 0.0
3861 C 98.247 31.756 17.034 C 0.0 **** 0.0
3862 H 98.107 31.867 15.959 H 0.0 **** 0.0
3863 H 98.941 32.518 17.39 H 0.0 **** 0.0
3864 H 98.652 30.767 17.247 H 0.0 **** 0.0
3865 H 97.288 31.873 17.539 H 0.0 **** 0.0
3866 C 75.705 24.504 71.563 C 0.0 **** 0.0
3867 H 76.447 23.835 71.127 H 0.0 **** 0.0
3868 H 75.384 25.228 70.814 H 0.0 **** 0.0
3869 H 76.144 25.028 72.412 H 0.0 **** 0.0
3870 H 74.845 23.924 71.899 H 0.0 **** 0.0
3871 C 87.808 28.122 43.993 C 0.0 **** 0.0
3872 H 87.342 29.107 43.997 H 0.0 **** 0.0
3873 H 87.255 27.462 43.323 H 0.0 **** 0.0
3874 H 87.795 27.71 45.002 H 0.0 **** 0.0
3875 H 88.838 28.209 43.648 H 0.0 **** 0.0
3876 C 80.284 16.693 93.576 C 0.0 **** 0.0
3877 H 80.302 16.358 92.539 H 0.0 **** 0.0
3878 H 80.43 15.838 94.236 H 0.0 **** 0.0
3879 H 79.322 17.158 93.791 H 0.0 **** 0.0
3880 H 81.082 17.417 93.737 H 0.0 **** 0.0
3881 C 21.692 20.518 12.559 C 0.0 **** 0.0
3882 H 22.662 20.12 12.858 H 0.0 **** 0.0
3883 H 21.721 20.791 11.503 H 0.0 **** 0.0
3884 H 21.462 21.4 13.156 H 0.0 **** 0.0
3885 H 20.925 19.761 12.718 H 0.0 **** 0.0
3886 C 48.619 7.318 74.637 C 0.0 **** 0.0
3887 H 49.248 8.038 75.16 H 0.0 **** 0.0
3888 H 47.782 7.034 75.276 H 0.0 **** 0.0
3889 H 49.207 6.433 74.393 H 0.0 **** 0.0
3890 H 48.24 7.767 73.719 H 0.0 **** 0.0
3891 C 55.877 31.201 41.682 C 0.0 **** 0.0
3892 H 56.293 31.593 40.754 H 0.0 **** 0.0
3893 H 56.463 30.342 42.008 H 0.0 **** 0.0
3894 H 54.844 30.896 41.516 H 0.0 **** 0.0
3895 H 55.908 31.975 42.449 H 0.0 **** 0.0
3896 C 66.395 85.438 21.002 C 0.0 **** 0.0
3897 H 65.351 85.567 21.285 H 0.0 **** 0.0
3898 H 67.019 85.458 21.896 H 0.0 **** 0.0
3899 H 66.692 86.247 20.333 H 0.0 **** 0.0
3900 H 66.518 84.482 20.493 H 0.0 **** 0.0
3901 C 74.493 75.358 87.961 C 0.0 **** 0.0
3902 H 73.846 75.504 88.827 H 0.0 **** 0.0
3903 H 74.358 74.348 87.573 H 0.0 **** 0.0
3904 H 75.532 75.499 88.256 H 0.0 **** 0.0
3905 H 74.233 76.082 87.189 H 0.0 **** 0.0
3906 C 30.821 73.512 3.009 C 0.0 **** 0.0
3907 H 31.628 73.183 3.664 H 0.0 **** 0.0
3908 H 29.875 73.467 3.549 H 0.0 **** 0.0
3909 H 30.774 72.861 2.136 H 0.0 **** 0.0
3910 H 31.008 74.537 2.689 H 0.0 **** 0.0
3911 C 84.353 37.683 46.26 C 0.0 **** 0.0
3912 H 85.277 38.181 46.553 H 0.0 **** 0.0
3913 H 83.892 38.23 45.437 H 0.0 **** 0.0
3914 H 83.669 37.659 47.109 H 0.0 **** 0.0
3915 H 84.574 36.664 45.942 H 0.0 **** 0.0
3916 C 7.255 18.177 97.893 C 0.0 **** 0.0
3917 H 7.915 17.421 98.319 H 0.0 **** 0.0
3918 H 7.607 19.169 98.177 H 0.0 **** 0.0
3919 H 6.243 18.028 98.271 H 0.0 **** 0.0
3920 H 7.254 18.087 96.807 H 0.0 **** 0.0
3921 C 27.795 59.93 39.884 C 0.0 **** 0.0
3922 H 28.009 60.525 40.772 H 0.0 **** 0.0
3923 H 26.864 60.275 39.433 H 0.0 **** 0.0
3924 H 27.697 58.881 40.164 H 0.0 **** 0.0
3925 H 28.609 60.041 39.168 H 0.0 **** 0.0
3926 C 63.804 93.718 91.337 C 0.0 **** 0.0
3927 H 63.879 93.642 90.252 H 0.0 **** 0.0
3928 H 64.781 93.529 91.783 H 0.0 **** 0.0
3929 H 63.088 92.983 91.704 H 0.0 **** 0.0
3930 H 63.468 94.719 91.609 H 0.0 **** 0.0
3931 C 48.378 82.768 25.45 C 0.0 **** 0.0
3932 H 49.297 83.113 25.925 H 0.0 **** 0.0
3933 H 47.761 83.628 25.188 H 0.0 **** 0.0
3934 H 47.832 82.125 26.14 H 0.0 **** 0.0
3935 H 48.624 82.208 24.548 H 0.0 **** 0.0
3936 C 77.893 16.764 71.957 C 0.0 **** 0.0
3937 H 78.207 16.048 71.197 H 0.0 **** 0.0
3938 H 77.681 17.723 71.485 H 0.0 **** 0.0
3939 H 78.69 16.888 72.69 H 0.0 **** 0.0
3940 H 76.996 16.396 72.454 H 0.0 **** 0.0
3941 C 93.611 22.68 83.304 C 0.0 **** 0.0
3942 H 93.488 22.673 82.221 H 0.0 **** 0.0
3943 H 93.624 21.655 83.674 H 0.0 **** 0.0
3944 H 92.782 23.222 83.759 H 0.0 **** 0.0
3945 H 94.55 23.171 83.559 H 0.0 **** 0.0
3946 C 8.894 42.645 83.715 C 0.0 **** 0.0
3947 H 9.605 43.334 84.171 H 0.0 **** 0.0
3948 H 9.213 41.619 83.9 H 0.0 **** 0.0
3949 H 8.85 42.825 82.641 H 0.0 **** 0.0
3950 H 7.907 42.803 84.15 H 0.0 **** 0.0
3951 C 69.641 83.6 83.173 C 0.0 **** 0.0
3952 H 68.945 84.435 83.095 H 0.0 **** 0.0
3953 H 70.659 83.961 83.029 H 0.0 **** 0.0
3954 H 69.406 82.859 82.408 H 0.0 **** 0.0
3955 H 69.553 83.144 84.159 H 0.0 **** 0.0
3956 C 6.874 40.53 66.743 C 0.0 **** 0.0
3957 H 7.906 40.445 67.082 H 0.0 **** 0.0
3958 H 6.306 39.665 67.088 H 0.0 **** 0.0
3959 H 6.85 40.57 65.654 H 0.0 **** 0.0
3960 H 6.433 41.44 67.15 H 0.0 **** 0.0
3961 C 95.16 66.917 72.372 C 0.0 **** 0.0
3962 H 94.412 66.136 72.506 H 0.0 **** 0.0
3963 H 96.129 66.46 72.168 H 0.0 **** 0.0
3964 H 95.225 67.517 73.279 H 0.0 **** 0.0
3965 H 94.874 67.553 71.535 H 0.0 **** 0.0
3966 C 77.927 64.496 4.563 C 0.0 **** 0.0
3967 H 77.003 65.066 4.459 H 0.0 **** 0.0
3968 H 77.878 63.609 3.932 H 0.0 **** 0.0
3969 H 78.053 64.197 5.603 H 0.0 **** 0.0
3970 H 78.771 65.115 4.258 H 0.0 **** 0.0
3971 C 45.828 68.234 42.83 C 0.0 **** 0.0
3972 H 45.966 67.175 42.612 H 0.0 **** 0.0
3973 H 44.886 68.375 43.362 H 0.0 **** 0.0
3974 H 45.807 68.797 41.897 H 0.0 **** 0.0
3975 H 46.652 68.587 43.45 H 0.0 **** 0.0
3976 C 38.822 51.153 45.885 C 0.0 **** 0.0
3977 H 38.852 50.822 46.923 H 0.0 **** 0.0
3978 H 38.061 50.588 45.346 H 0.0 **** 0.0
3979 H 39.795 50.987 45.423 H 0.0 **** 0.0
3980 H 38.58 52.215 45.85 H 0.0 **** 0.0
3981 C 69.921 33.933 65.742 C 0.0 **** 0.0
3982 H 69.997 33.974 66.829 H 0.0 **** 0.0
3983 H 69.295 33.089 65.453 H 0.0 **** 0.0
3984 H 70.916 33.812 65.314 H 0.0 **** 0.0
3985 H 69.477 34.858 65.375 H 0.0 **** 0.0
3986 C 39.044 73.712 40.999 C 0.0 **** 0.0
3987 H 39.598 74.639 40.856 H 0.0 **** 0.0
3988 H 39.213 73.053 40.146 H 0.0 **** 0.0
3989 H 37.98 73.934 41.08 H 0.0 **** 0.0
3990 H 39.384 73.221 41.911 H 0.0 **** 0.0
3991 C 64.129 64.145 56.404 C 0.0 **** 0.0
3992 H 63.922 64.92 55.666 H 0.0 **** 0.0
3993 H 64.682 64.576 57.238 H 0.0 **** 0.0
3994 H 64.723 63.355 55.943 H 0.0 **** 0.0
3995 H 63.189 63.729 56.766 H 0.0 **** 0.0
3996 C 94.791 51.778 30.524 C 0.0 **** 0.0
3997 H 94.778 51.511 31.581 H 0.0 **** 0.0
3998 H 93.775 51.988 30.19 H 0.0 **** 0.0
3999 H 95.201 50.951 29.945 H 0.0 **** 0.0
4000 H 95.411 52.664 30.381 H 0.0 **** 0.0
4001 C 91.083 63.851 85.215 C 0.0 **** 0.0
4002 H 91.472 64.822 85.521 H 0.0 **** 0.0
4003 H 91.623 63.062 85.738 H 0.0 **** 0.0
4004 H 91.214 63.73 84.139 H 0.0 **** 0.0
4005 H 90.023 63.791 85.461 H 0.0 **** 0.0
4006 C 40.749 2.896 59.654 C 0.0 **** 0.0
4007 H 41.72 2.408 59.569 H 0.0 **** 0.0
4008 H 40.455 3.292 58.681 H 0.0 **** 0.0
4009 H 40.815 3.712 60.373 H 0.0 **** 0.0
4010 H 40.007 2.173 59.991 H 0.0 **** 0.0
4011 C 63.137 14.278 40.21 C 0.0 **** 0.0
4012 H 62.7 15.105 39.651 H 0.0 **** 0.0
4013 H 62.658 14.205 41.186 H 0.0 **** 0.0
4014 H 64.205 14.453 40.341 H 0.0 **** 0.0
4015 H 62.986 13.349 39.66 H 0.0 **** 0.0
4016 C 42.174 27.819 93.651 C 0.0 **** 0.0
4017 H 41.47 27.763 92.821 H 0.0 **** 0.0
4018 H 43.061 28.37 93.337 H 0.0 **** 0.0
4019 H 42.46 26.811 93.952 H 0.0 **** 0.0
4020 H 41.706 28.33 94.491 H 0.0 **** 0.0
4021 C 67.212 54.904 94.049 C 0.0 **** 0.0
4022 H 67.059 55.081 95.113 H 0.0 **** 0.0
4023 H 67.43 53.849 93.883 H 0.0 **** 0.0
4024 H 68.049 55.508 93.697 H 0.0 **** 0.0
4025 H 66.31 55.18 93.502 H 0.0 **** 0.0
4026 C 31.477 94.739 35.374 C 0.0 **** 0.0
4027 H 31.823 95.363 34.55 H 0.0 **** 0.0
4028 H 30.563 94.223 35.08 H 0.0 **** 0.0
4029 H 31.278 95.365 36.244 H 0.0 **** 0.0
4030 H 32.246 94.007 35.622 H 0.0 **** 0.0
4031 C 94.576 66.698 68.542 C 0.0 **** 0.0
4032 H 95.553 67.127 68.767 H 0.0 **** 0.0
4033 H 94.693 65.643 68.291 H 0.0 **** 0.0
4034 H 94.133 67.226 67.698 H 0.0 **** 0.0
4035 H 93.928 66.794 69.413 H 0.0 **** 0.0
4036 C 35.763 21.709 80.33 C 0.0 **** 0.0
4037 H 36.366 21.463 79.456 H 0.0 **** 0.0
4038 H 35.341 20.795 80.749 H 0.0 **** 0.0
4039 H 34.956 22.381 80.036 H 0.0 **** 0.0
4040 H 36.388 22.198 81.077 H 0.0 **** 0.0
4041 C 7.679 90.544 32.59 C 0.0 **** 0.0
4042 H 7.606 91.42 31.945 H 0.0 **** 0.0
4043 H 7.473 90.834 33.621 H 0.0 **** 0.0
4044 H 8.683 90.127 32.523 H 0.0 **** 0.0
4045 H 6.953 89.797 32.27 H 0.0 **** 0.0
4046 C 22.014 97.127 28.348 C 0.0 **** 0.0
4047 H 22.016 97.1 27.259 H 0.0 **** 0.0
4048 H 21.489 98.02 28.688 H 0.0 **** 0.0
4049 H 23.042 97.149 28.713 H 0.0 **** 0.0
4050 H 21.512 96.24 28.733 H 0.0 **** 0.0
4051 C 43.251 77.094 52.534 C 0.0 **** 0.0
4052 H 43.495 76.487 53.406 H 0.0 **** 0.0
4053 H 42.895 78.071 52.859 H 0.0 **** 0.0
4054 H 42.472 76.598 51.954 H 0.0 **** 0.0
4055 H 44.141 77.217 51.917 H 0.0 **** 0.0
4056 C 52.948 43.481 91.672 C 0.0 **** 0.0
4057 H 52.049 43.603 91.068 H 0.0 **** 0.0
4058 H 53.165 44.414 92.193 H 0.0 **** 0.0
4059 H 53.787 43.221 91.027 H 0.0 **** 0.0
4060 H 52.791 42.686 92.402 H 0.0 **** 0.0
4061 C 74.563 50.948 70.959 C 0.0 **** 0.0
4062 H 75.633 51.144 71.031 H 0.0 **** 0.0
4063 H 74.19 51.314 70.002 H 0.0 **** 0.0
4064 H 74.045 51.46 71.771 H 0.0 **** 0.0
4065 H 74.384 49.876 71.034 H 0.0 **** 0.0
4066 C 38.214 42.026 87.931 C 0.0 **** 0.0
4067 H 37.477 42.618 88.473 H 0.0 **** 0.0
4068 H 37.909 41.933 86.888 H 0.0 **** 0.0
4069 H 38.284 41.035 88.379 H 0.0 **** 0.0
4070 H 39.185 42.519 87.983 H 0.0 **** 0.0
4071 C 36.101 31.997 36.29 C 0.0 **** 0.0
4072 H 36.517 32.961 35.996 H 0.0 **** 0.0
4073 H 35.722 32.061 37.31 H 0.0 **** 0.0
4074 H 36.879 31.235 36.238 H 0.0 **** 0.0
4075 H 35.287 31.732 35.615 H 0.0 **** 0.0
4076 C 8.336 49.373 56.565 C 0.0 **** 0.0
4077 H 8.341 49.395 57.655 H 0.0 **** 0.0
4078 H 7.37 49.011 56.213 H 0.0 **** 0.0
4079 H 9.124 48.707 56.213 H 0.0 **** 0.0
4080 H 8.51 50.378 56.18 H 0.0 **** 0.0
4081 C 71.506 46.631 94.649 C 0.0 **** 0.0
4082 H 71.444 46.912 93.598 H 0.0 **** 0.0
4083 H 72.52 46.306 94.88 H 0.0 **** 0.0
4084 H 70.809 45.817 94.849 H 0.0 **** 0.0
4085 H 71.249 47.49 95.27 H 0.0 **** 0.0
4086 C 88.101 3.213 40.04 C 0.0 **** 0.0
4087 H 88.52 4.069 40.569 H 0.0 **** 0.0
4088 H 87.861 3.5 39.016 H 0.0 **** 0.0
4089 H 87.195 2.881 40.547 H 0.0 **** 0.0
4090 H 88.83 2.402 40.028 H 0.0 **** 0.0
4091 C 73.253 84.362 51.629 C 0.0 **** 0.0
4092 H 73.75 83.721 50.9 H 0.0 **** 0.0
4093 H 72.459 84.924 51.136 H 0.0 **** 0.0
4094 H 73.978 85.055 52.056 H 0.0 **** 0.0
4095 H 72.826 83.748 52.421 H 0.0 **** 0.0
4096 C 61.063 93.557 8.474 C 0.0 **** 0.0
4097 H 61.076 92.755 9.211 H 0.0 **** 0.0
4098 H 61.613 93.243 7.586 H 0.0 **** 0.0
4099 H 61.531 94.446 8.896 H 0.0 **** 0.0
4100 H 60.032 93.784 8.202 H 0.0 **** 0.0
4101 C 22.573 63.157 8.011 C 0.0 **** 0.0
4102 H 21.883 63.3 8.843 H 0.0 **** 0.0
4103 H 22.061 62.637 7.201 H 0.0 **** 0.0
4104 H 23.424 62.563 8.343 H 0.0 **** 0.0
4105 H 22.922 64.127 7.657 H 0.0 **** 0.0
4106 C 86.208 8.452 15.028 C 0.0 **** 0.0
4107 H 85.666 9.21 14.463 H 0.0 **** 0.0
4108 H 85.987 8.564 16.09 H 0.0 **** 0.0
4109 H 87.279 8.575 14.865 H 0.0 **** 0.0
4110 H 85.901 7.461 14.695 H 0.0 **** 0.0
4111 C 57.47 93.985 75.448 C 0.0 **** 0.0
4112 H 57.153 94.966 75.094 H 0.0 **** 0.0
4113 H 58.178 93.555 74.74 H 0.0 **** 0.0
4114 H 56.601 93.333 75.536 H 0.0 **** 0.0
4115 H 57.947 94.088 76.423 H 0.0 **** 0.0
4116 C 14.933 19.207 10.115 C 0.0 **** 0.0
4117 H 14.922 18.119 10.19 H 0.0 **** 0.0
4118 H 15.889 19.533 9.705 H 0.0 **** 0.0
4119 H 14.795 19.64 11.105 H 0.0 **** 0.0
4120 H 14.126 19.534 9.459 H 0.0 **** 0.0
4121 C 23.359 58.873 37.346 C 0.0 **** 0.0
4122 H 24.278 58.663 37.892 H 0.0 **** 0.0
4123 H 22.733 59.546 37.934 H 0.0 **** 0.0
4124 H 22.822 57.941 37.167 H 0.0 **** 0.0
4125 H 23.601 59.342 36.393 H 0.0 **** 0.0
4126 C 92.574 35.703 0.948 C 0.0 **** 0.0
4127 H 93.087 35.007 1.611 H 0.0 **** 0.0
4128 H 93.146 35.816 0.027 H 0.0 **** 0.0
4129 H 92.48 36.671 1.439 H 0.0 **** 0.0
4130 H 91.582 35.317 0.714 H 0.0 **** 0.0
4131 C 30.72 63.594 93.45 C 0.0 **** 0.0
4132 H 30.533 64.587 93.859 H 0.0 **** 0.0
4133 H 30.241 62.845 94.081 H 0.0 **** 0.0
4134 H 31.794 63.411 93.419 H 0.0 **** 0.0
4135 H 30.311 63.534 92.441 H 0.0 **** 0.0
4136 C 5.692 16.972 12.531 C 0.0 **** 0.0
4137 H 6.198 16.941 11.566 H 0.0 **** 0.0
4138 H 5.15 17.913 12.626 H 0.0 **** 0.0
4139 H 6.429 16.894 13.33 H 0.0 **** 0.0
4140 H 4.991 16.14 12.6 H 0.0 **** 0.0
4141 C 23.74 51.826 18.941 C 0.0 **** 0.0
4142 H 23.001 52.613 19.092 H 0.0 **** 0.0
4143 H 23.784 51.194 19.828 H 0.0 **** 0.0
4144 H 24.718 52.275 18.765 H 0.0 **** 0.0
4145 H 23.457 51.223 18.078 H 0.0 **** 0.0
4146 C 89.422 49.308 49.518 C 0.0 **** 0.0
4147 H 88.647 49.847 50.062 H 0.0 **** 0.0
4148 H 89.099 48.279 49.351 H 0.0 **** 0.0
4149 H 90.343 49.31 50.101 H 0.0 **** 0.0
4150 H 89.597 49.794 48.558 H 0.0 **** 0.0
4151 C 31.201 43.197 89.357 C 0.0 **** 0.0
4152 H 31.216 43.198 88.267 H 0.0 **** 0.0
4153 H 30.173 43.093 89.706 H 0.0 **** 0.0
4154 H 31.618 44.134 89.726 H 0.0 **** 0.0
4155 H 31.797 42.363 89.728 H 0.0 **** 0.0
4156 C 67.775 2.108 84.212 C 0.0 **** 0.0
4157 H 67.575 2.978 83.586 H 0.0 **** 0.0
4158 H 67.407 2.294 85.221 H 0.0 **** 0.0
4159 H 68.849 1.924 84.244 H 0.0 **** 0.0
4160 H 67.27 1.237 83.794 H 0.0 **** 0.0
4161 C 36.063 46.428 84.533 C 0.0 **** 0.0
4162 H 36.274 45.895 85.459 H 0.0 **** 0.0
4163 H 35.046 46.205 84.209 H 0.0 **** 0.0
4164 H 36.767 46.112 83.763 H 0.0 **** 0.0
4165 H 36.164 47.5 84.7 H 0.0 **** 0.0
4166 C 35.786 19.097 13.068 C 0.0 **** 0.0
4167 H 35.553 19.666 12.168 H 0.0 **** 0.0
4168 H 36.785 18.67 12.98 H 0.0 **** 0.0
4169 H 35.057 18.295 13.189 H 0.0 **** 0.0
4170 H 35.747 19.757 13.935 H 0.0 **** 0.0
4171 C 50.424 1.856 38.133 C 0.0 **** 0.0
4172 H 50.261 1.681 39.196 H 0.0 **** 0.0
4173 H 50.653 2.909 37.97 H 0.0 **** 0.0
4174 H 49.524 1.59 37.579 H 0.0 **** 0.0
4175 H 51.258 1.245 37.788 H 0.0 **** 0.0
4176 C 46.783 5.094 59.621 C 0.0 **** 0.0
4177 H 47.412 5.825 59.112 H 0.0 **** 0.0
4178 H 45.789 5.096 59.174 H 0.0 **** 0.0
4179 H 46.708 5.354 60.677 H 0.0 **** 0.0
4180 H 47.226 4.103 59.521 H 0.0 **** 0.0
4181 C 9.719 66.209 31.529 C 0.0 **** 0.0
4182 H 8.852 66.85 31.692 H 0.0 **** 0.0
4183 H 10.631 66.798 31.635 H 0.0 **** 0.0
4184 H 9.674 65.785 30.526 H 0.0 **** 0.0
4185 H 9.718 65.404 32.264 H 0.0 **** 0.0
4186 C 53.073 67.755 58.989 C 0.0 **** 0.0
4187 H 53.539 67.746 58.004 H 0.0 **** 0.0
4188 H 52.168 68.362 58.958 H 0.0 **** 0.0
4189 H 53.768 68.175 59.716 H 0.0 **** 0.0
4190 H 52.817 66.736 59.279 H 0.0 **** 0.0
4191 C 92.092 8.508 0.993 C 0.0 **** 0.0
4192 H 91.425 8.884 1.769 H 0.0 **** 0.0
4193 H 92.37 7.479 1.22 H 0.0 **** 0.0
4194 H 92.989 9.127 0.955 H 0.0 **** 0.0
4195 H 91.585 8.545 0.029 H 0.0 **** 0.0
4196 C 55.862 90.908 73.891 C 0.0 **** 0.0
4197 H 56.303 90.369 74.729 H 0.0 **** 0.0
4198 H 55.475 90.193 73.163 H 0.0 **** 0.0
4199 H 56.621 91.532 73.419 H 0.0 **** 0.0
4200 H 55.047 91.536 74.251 H 0.0 **** 0.0
4201 C 17.317 42.073 73.885 C 0.0 **** 0.0
4202 H 16.27 42.36 73.983 H 0.0 **** 0.0
4203 H 17.945 42.961 73.962 H 0.0 **** 0.0
4204 H 17.475 41.598 72.917 H 0.0 **** 0.0
4205 H 17.577 41.374 74.68 H 0.0 **** 0.0
4206 C 4.033 82.713 40.452 C 0.0 **** 0.0
4207 H 4.939 82.371 40.953 H 0.0 **** 0.0
4208 H 4.277 83.023 39.435 H 0.0 **** 0.0
4209 H 3.612 83.556 40.998 H 0.0 **** 0.0
4210 H 3.307 81.901 40.42 H 0.0 **** 0.0
4211 C 88.113 67.568 55.071 C 0.0 **** 0.0
4212 H 87.31 68.305 55.09 H 0.0 **** 0.0
4213 H 87.942 66.825 55.849 H 0.0 **** 0.0
4214 H 89.067 68.066 55.247 H 0.0 **** 0.0
4215 H 88.133 67.079 54.097 H 0.0 **** 0.0
4216 C 42.277 16.2 52.341 C 0.0 **** 0.0
4217 H 42.673 16.975 52.997 H 0.0 **** 0.0
4218 H 43.041 15.441 52.174 H 0.0 **** 0.0
4219 H 41.99 16.644 51.387 H 0.0 **** 0.0
4220 H 41.404 15.742 52.806 H 0.0 **** 0.0
4221 C 45.272 91.367 32.011 C 0.0 **** 0.0
4222 H 46.071 91.408 32.752 H 0.0 **** 0.0
4223 H 44.427 90.812 32.419 H 0.0 **** 0.0
4224 H 45.635 90.869 31.112 H 0.0 **** 0.0
4225 H 44.956 92.381 31.763 H 0.0 **** 0.0
4226 C 7.689 63.568 72.101 C 0.0 **** 0.0
4227 H 7.559 64.146 73.016 H 0.0 **** 0.0
4228 H 7.334 64.15 71.25 H 0.0 **** 0.0
4229 H 7.118 62.642 72.173 H 0.0 **** 0.0
4230 H 8.745 63.334 71.967 H 0.0 **** 0.0
4231 C 8.463 98.066 63.998 C 0.0 **** 0.0
4232 H 8.463 98.066 65.088 H 0.0 **** 0.0
4233 H 7.435 98.038 63.635 H 0.0 **** 0.0
4234 H 9.0 97.189 63.635 H 0.0 **** 0.0
4235 H 8.953 98.969 63.635 H 0.0 **** 0.0
4236 C 54.964 23.67 34.974 C 0.0 **** 0.0
4237 H 54.28 22.823 35.032 H 0.0 **** 0.0
4238 H 55.77 23.439 34.278 H 0.0 **** 0.0
4239 H 55.381 23.869 35.961 H 0.0 **** 0.0
4240 H 54.423 24.55 34.624 H 0.0 **** 0.0
4241 C 75.736 50.889 91.579 C 0.0 **** 0.0
4242 H 74.892 50.858 90.89 H 0.0 **** 0.0
4243 H 75.445 50.443 92.53 H 0.0 **** 0.0
4244 H 76.035 51.925 91.74 H 0.0 **** 0.0
4245 H 76.571 50.332 91.156 H 0.0 **** 0.0
4246 C 46.008 88.984 97.234 C 0.0 **** 0.0
4247 H 46.728 88.233 97.558 H 0.0 **** 0.0
4248 H 45.787 89.657 98.063 H 0.0 **** 0.0
4249 H 45.091 88.491 96.91 H 0.0 **** 0.0
4250 H 46.426 89.554 96.404 H 0.0 **** 0.0
4251 C 61.326 46.231 98.083 C 0.0 **** 0.0
4252 H 61.049 45.711 99.0 H 0.0 **** 0.0
4253 H 60.464 46.277 97.417 H 0.0 **** 0.0
4254 H 62.137 45.692 97.592 H 0.0 **** 0.0
4255 H 61.655 47.242 98.323 H 0.0 **** 0.0
4256 C 7.319 43.602 89.621 C 0.0 **** 0.0
4257 H 6.459 43.749 88.968 H 0.0 **** 0.0
4258 H 8.165 44.175 89.242 H 0.0 **** 0.0
4259 H 7.579 42.543 89.647 H 0.0 **** 0.0
4260 H 7.073 43.94 90.628 H 0.0 **** 0.0
4261 C 9.965 93.475 31.202 C 0.0 **** 0.0
4262 H 10.889 93.75 30.693 H 0.0 **** 0.0
4263 H 9.414 94.377 31.467 H 0.0 **** 0.0
4264 H 10.201 92.914 32.106 H 0.0 **** 0.0
4265 H 9.356 92.858 30.541 H 0.0 **** 0.0
4266 C 6.546 71.853 70.255 C 0.0 **** 0.0
4267 H 5.464 71.761 70.35 H 0.0 **** 0.0
4268 H 7.0 70.862 70.295 H 0.0 **** 0.0
4269 H 6.932 72.462 71.073 H 0.0 **** 0.0
4270 H 6.789 72.326 69.304 H 0.0 **** 0.0
4271 C 8.834 13.746 3.603 C 0.0 **** 0.0
4272 H 9.481 13.495 2.762 H 0.0 **** 0.0
4273 H 8.336 14.696 3.407 H 0.0 **** 0.0
4274 H 9.432 13.828 4.51 H 0.0 **** 0.0
4275 H 8.086 12.963 3.731 H 0.0 **** 0.0
4276 C 76.146 81.183 5.401 C 0.0 **** 0.0
4277 H 76.532 80.801 4.456 H 0.0 **** 0.0
4278 H 75.767 80.355 6.0 H 0.0 **** 0.0
4279 H 75.339 81.889 5.204 H 0.0 **** 0.0
4280 H 76.946 81.688 5.943 H 0.0 **** 0.0
4281 C 63.365 31.554 82.339 C 0.0 **** 0.0
4282 H 63.389 32.579 81.968 H 0.0 **** 0.0
4283 H 63.965 31.483 83.247 H 0.0 **** 0.0
4284 H 63.772 30.884 81.581 H 0.0 **** 0.0
4285 H 62.336 31.271 82.559 H 0.0 **** 0.0
4286 C 84.431 18.672 43.35 C 0.0 **** 0.0
4287 H 84.85 19.003 44.301 H 0.0 **** 0.0
4288 H 85.206 18.179 42.764 H 0.0 **** 0.0
4289 H 84.053 19.535 42.801 H 0.0 **** 0.0
4290 H 83.616 17.974 43.537 H 0.0 **** 0.0
4291 C 79.206 33.21 63.879 C 0.0 **** 0.0
4292 H 78.671 33.799 64.623 H 0.0 **** 0.0
4293 H 79.618 32.318 64.35 H 0.0 **** 0.0
4294 H 80.015 33.806 63.457 H 0.0 **** 0.0
4295 H 78.518 32.917 63.085 H 0.0 **** 0.0
4296 C 28.479 75.615 52.222 C 0.0 **** 0.0
4297 H 28.572 76.7 52.264 H 0.0 **** 0.0
4298 H 27.824 75.338 51.396 H 0.0 **** 0.0
4299 H 28.057 75.25 53.158 H 0.0 **** 0.0
4300 H 29.464 75.171 52.07 H 0.0 **** 0.0
4301 C 29.622 65.872 50.443 C 0.0 **** 0.0
4302 H 29.511 65.986 51.521 H 0.0 **** 0.0
4303 H 29.323 64.865 50.152 H 0.0 **** 0.0
4304 H 30.663 66.037 50.165 H 0.0 **** 0.0
4305 H 28.99 66.601 49.935 H 0.0 **** 0.0
4306 C 82.289 10.603 98.317 C 0.0 **** 0.0
4307 H 81.522 10.035 98.843 H 0.0 **** 0.0
4308 H 82.636 10.032 97.456 H 0.0 **** 0.0
4309 H 83.126 10.792 98.99 H 0.0 **** 0.0
4310 H 81.872 11.552 97.98 H 0.0 **** 0.0
4311 C 13.801 48.532 64.492 C 0.0 **** 0.0
4312 H 13.808 48.137 65.508 H 0.0 **** 0.0
4313 H 13.335 49.518 64.489 H 0.0 **** 0.0
4314 H 13.236 47.861 63.845 H 0.0 **** 0.0
4315 H 14.824 48.613 64.126 H 0.0 **** 0.0
4316 C 24.657 35.66 58.015 C 0.0 **** 0.0
4317 H 24.618 35.69 59.103 H 0.0 **** 0.0
4318 H 23.687 35.947 57.608 H 0.0 **** 0.0
4319 H 24.905 34.65 57.688 H 0.0 **** 0.0
4320 H 25.42 36.354 57.66 H 0.0 **** 0.0
4321 C 61.147 34.89 86.174 C 0.0 **** 0.0
4322 H 60.202 35.429 86.116 H 0.0 **** 0.0
4323 H 61.829 35.267 85.411 H 0.0 **** 0.0
4324 H 60.969 33.827 86.009 H 0.0 **** 0.0
4325 H 61.589 35.035 87.16 H 0.0 **** 0.0
4326 C 69.674 52.848 0.579 C 0.0 **** 0.0
4327 H 69.447 53.087 1.618 H 0.0 **** 0.0
4328 H 70.347 53.603 0.171 H 0.0 **** 0.0
4329 H 68.751 52.832 0.0 H 0.0 **** 0.0
4330 H 70.152 51.869 0.527 H 0.0 **** 0.0
4331 C 65.009 46.335 40.274 C 0.0 **** 0.0
4332 H 65.672 46.35 39.409 H 0.0 **** 0.0
4333 H 64.912 45.313 40.641 H 0.0 **** 0.0
4334 H 64.027 46.713 39.986 H 0.0 **** 0.0
4335 H 65.424 46.966 41.06 H 0.0 **** 0.0
4336 C 13.61 40.817 26.728 C 0.0 **** 0.0
4337 H 12.934 40.745 27.58 H 0.0 **** 0.0
4338 H 13.852 41.864 26.544 H 0.0 **** 0.0
4339 H 13.13 40.393 25.847 H 0.0 **** 0.0
4340 H 14.525 40.265 26.944 H 0.0 **** 0.0
4341 C 78.443 0.868 71.516 C 0.0 **** 0.0
4342 H 78.743 1.608 72.258 H 0.0 **** 0.0
4343 H 79.331 0.385 71.107 H 0.0 **** 0.0
4344 H 77.894 1.36 70.713 H 0.0 **** 0.0
4345 H 77.806 0.119 71.987 H 0.0 **** 0.0
4346 C 16.384 68.438 5.012 C 0.0 **** 0.0
4347 H 16.714 68.396 3.974 H 0.0 **** 0.0
4348 H 15.48 67.84 5.13 H 0.0 **** 0.0
4349 H 16.175 69.472 5.285 H 0.0 **** 0.0
4350 H 17.168 68.043 5.658 H 0.0 **** 0.0
4351 C 94.219 94.413 97.636 C 0.0 **** 0.0
4352 H 93.598 93.604 98.021 H 0.0 **** 0.0
4353 H 94.584 95.017 98.466 H 0.0 **** 0.0
4354 H 93.628 95.036 96.964 H 0.0 **** 0.0
4355 H 95.065 93.992 97.092 H 0.0 **** 0.0
4356 C 56.405 65.118 18.064 C 0.0 **** 0.0
4357 H 57.042 65.616 18.795 H 0.0 **** 0.0
4358 H 56.537 65.588 17.089 H 0.0 **** 0.0
4359 H 55.363 65.204 18.371 H 0.0 **** 0.0
4360 H 56.68 64.065 18.001 H 0.0 **** 0.0
4361 C 29.718 80.686 96.355 C 0.0 **** 0.0
4362 H 28.683 80.585 96.029 H 0.0 **** 0.0
4363 H 30.264 81.303 95.64 H 0.0 **** 0.0
4364 H 30.179 79.7 96.412 H 0.0 **** 0.0
4365 H 29.745 81.158 97.337 H 0.0 **** 0.0
4366 C 18.142 16.046 19.522 C 0.0 **** 0.0
4367 H 17.867 15.146 20.072 H 0.0 **** 0.0
4368 H 19.208 16.235 19.643 H 0.0 **** 0.0
4369 H 17.576 16.894 19.907 H 0.0 **** 0.0
4370 H 17.915 15.908 18.464 H 0.0 **** 0.0
4371 C 95.676 58.903 95.66 C 0.0 **** 0.0
4372 H 95.252 59.656 94.995 H 0.0 **** 0.0
4373 H 96.761 58.894 95.555 H 0.0 **** 0.0
4374 H 95.277 57.923 95.399 H 0.0 **** 0.0
4375 H 95.412 59.14 96.691 H 0.0 **** 0.0
4376 C 27.343 6.235 37.329 C 0.0 **** 0.0
4377 H 27.347 6.23 36.239 H 0.0 **** 0.0
4378 H 27.762 5.298 37.698 H 0.0 **** 0.0
4379 H 26.319 6.342 37.688 H 0.0 **** 0.0
4380 H 27.944 7.069 37.69 H 0.0 **** 0.0
4381 C 66.678 53.458 33.719 C 0.0 **** 0.0
4382 H 66.134 54.391 33.87 H 0.0 **** 0.0
4383 H 67.615 53.665 33.201 H 0.0 **** 0.0
4384 H 66.073 52.779 33.118 H 0.0 **** 0.0
4385 H 66.889 53.0 34.685 H 0.0 **** 0.0
4386 C 56.323 78.764 70.764 C 0.0 **** 0.0
4387 H 56.508 78.823 69.692 H 0.0 **** 0.0
4388 H 56.27 79.771 71.179 H 0.0 **** 0.0
4389 H 57.135 78.216 71.243 H 0.0 **** 0.0
4390 H 55.381 78.247 70.943 H 0.0 **** 0.0
4391 C 7.984 24.651 6.757 C 0.0 **** 0.0
4392 H 8.291 23.621 6.577 H 0.0 **** 0.0
4393 H 8.371 25.29 5.963 H 0.0 **** 0.0
4394 H 8.378 24.985 7.717 H 0.0 **** 0.0
4395 H 6.895 24.707 6.772 H 0.0 **** 0.0
4396 C 94.421 36.259 33.883 C 0.0 **** 0.0
4397 H 94.548 36.946 34.72 H 0.0 **** 0.0
4398 H 93.566 35.609 34.074 H 0.0 **** 0.0
4399 H 95.32 35.653 33.771 H 0.0 **** 0.0
4400 H 94.249 36.827 32.969 H 0.0 **** 0.0
4401 C 78.828 71.317 23.191 C 0.0 **** 0.0
4402 H 78.631 71.259 22.12 H 0.0 **** 0.0
4403 H 79.73 71.905 23.363 H 0.0 **** 0.0
4404 H 78.967 70.312 23.589 H 0.0 **** 0.0
4405 H 77.984 71.792 23.69 H 0.0 **** 0.0
4406 C 67.512 19.463 39.938 C 0.0 **** 0.0
4407 H 67.659 18.738 39.137 H 0.0 **** 0.0
4408 H 66.486 19.83 39.911 H 0.0 **** 0.0
4409 H 68.2 20.298 39.803 H 0.0 **** 0.0
4410 H 67.703 18.986 40.899 H 0.0 **** 0.0
4411 C 78.123 77.911 28.312 C 0.0 **** 0.0
4412 H 77.833 77.474 27.357 H 0.0 **** 0.0
4413 H 77.387 77.647 29.071 H 0.0 **** 0.0
4414 H 78.173 78.996 28.215 H 0.0 **** 0.0
4415 H 79.101 77.528 28.605 H 0.0 **** 0.0
4416 C 25.054 27.971 7.652 C 0.0 **** 0.0
4417 H 25.126 27.995 6.564 H 0.0 **** 0.0
4418 H 24.846 26.952 7.979 H 0.0 **** 0.0
4419 H 24.25 28.63 7.977 H 0.0 **** 0.0
4420 H 25.997 28.306 8.085 H 0.0 **** 0.0
4421 C 10.811 3.294 26.897 C 0.0 **** 0.0
4422 H 10.878 4.325 27.246 H 0.0 **** 0.0
4423 H 10.067 2.759 27.488 H 0.0 **** 0.0
4424 H 11.78 2.809 27.008 H 0.0 **** 0.0
4425 H 10.517 3.285 25.847 H 0.0 **** 0.0
4426 C 5.504 68.205 20.558 C 0.0 **** 0.0
4427 H 5.703 68.593 21.557 H 0.0 **** 0.0
4428 H 4.428 68.2 20.379 H 0.0 **** 0.0
4429 H 5.89 67.188 20.48 H 0.0 **** 0.0
4430 H 5.994 68.837 19.818 H 0.0 **** 0.0
4431 C 67.859 22.641 97.793 C 0.0 **** 0.0
4432 H 67.186 22.438 96.96 H 0.0 **** 0.0
4433 H 68.33 21.712 98.113 H 0.0 **** 0.0
4434 H 67.293 23.066 98.621 H 0.0 **** 0.0
4435 H 68.626 23.348 97.476 H 0.0 **** 0.0
4436 C 63.353 38.245 46.907 C 0.0 **** 0.0
4437 H 63.542 38.12 47.973 H 0.0 **** 0.0
4438 H 62.435 38.816 46.765 H 0.0 **** 0.0
4439 H 63.248 37.265 46.44 H 0.0 **** 0.0
4440 H 64.187 38.777 46.45 H 0.0 **** 0.0
4441 C 10.861 27.21 71.311 C 0.0 **** 0.0
4442 H 10.777 26.969 70.251 H 0.0 **** 0.0
4443 H 10.451 28.204 71.49 H 0.0 **** 0.0
4444 H 11.91 27.189 71.606 H 0.0 **** 0.0
4445 H 10.304 26.477 71.895 H 0.0 **** 0.0
4446 C 69.515 31.979 70.146 C 0.0 **** 0.0
4447 H 69.869 31.377 69.31 H 0.0 **** 0.0
4448 H 68.426 31.948 70.181 H 0.0 **** 0.0
4449 H 69.845 33.01 70.016 H 0.0 **** 0.0
4450 H 69.92 31.582 71.077 H 0.0 **** 0.0
4451 C 89.286 90.081 23.43 C 0.0 **** 0.0
4452 H 89.88 89.904 24.327 H 0.0 **** 0.0
4453 H 89.949 90.312 22.596 H 0.0 **** 0.0
4454 H 88.611 90.92 23.602 H 0.0 **** 0.0
4455 H 88.705 89.189 23.198 H 0.0 **** 0.0
4456 C 40.777 31.105 38.833 C 0.0 **** 0.0
4457 H 41.436 30.879 37.995 H 0.0 **** 0.0
4458 H 40.307 32.076 38.673 H 0.0 **** 0.0
4459 H 41.358 31.13 39.755 H 0.0 **** 0.0
4460 H 40.008 30.336 38.908 H 0.0 **** 0.0
4461 C 29.923 3.525 84.761 C 0.0 **** 0.0
4462 H 30.234 2.551 84.385 H 0.0 **** 0.0
4463 H 29.566 4.138 83.933 H 0.0 **** 0.0
4464 H 30.77 4.018 85.239 H 0.0 **** 0.0
4465 H 29.122 3.395 85.489 H 0.0 **** 0.0
4466 C 75.815 10.808 30.377 C 0.0 **** 0.0
4467 H 76.024 11.213 29.386 H 0.0 **** 0.0
4468 H 75.385 11.589 31.004 H 0.0 **** 0.0
4469 H 76.74 10.449 30.826 H 0.0 **** 0.0
4470 H 75.109 9.982 30.289 H 0.0 **** 0.0
4471 C 83.183 13.31 77.763 C 0.0 **** 0.0
4472 H 82.859 13.501 76.74 H 0.0 **** 0.0
4473 H 82.336 13.424 78.44 H 0.0 **** 0.0
4474 H 83.964 14.02 78.035 H 0.0 **** 0.0
4475 H 83.574 12.295 77.837 H 0.0 **** 0.0
4476 C 22.479 12.69 97.542 C 0.0 **** 0.0
4477 H 23.044 11.764 97.649 H 0.0 **** 0.0
4478 H 21.702 12.556 96.789 H 0.0 **** 0.0
4479 H 23.15 13.491 97.234 H 0.0 **** 0.0
4480 H 22.02 12.947 98.497 H 0.0 **** 0.0
4481 C 12.594 36.272 61.906 C 0.0 **** 0.0
4482 H 12.834 36.55 60.88 H 0.0 **** 0.0
4483 H 12.092 35.304 61.912 H 0.0 **** 0.0
4484 H 11.937 37.025 62.342 H 0.0 **** 0.0
4485 H 13.512 36.209 62.49 H 0.0 **** 0.0
4486 C 69.428 74.044 56.978 C 0.0 **** 0.0
4487 H 69.43 73.248 57.723 H 0.0 **** 0.0
4488 H 69.473 75.011 57.48 H 0.0 **** 0.0
4489 H 68.515 73.984 56.385 H 0.0 **** 0.0
4490 H 70.293 73.932 56.325 H 0.0 **** 0.0
4491 C 35.614 57.784 49.576 C 0.0 **** 0.0
4492 H 35.612 58.007 48.509 H 0.0 **** 0.0
4493 H 34.701 57.246 49.835 H 0.0 **** 0.0
4494 H 35.661 58.714 50.141 H 0.0 **** 0.0
4495 H 36.48 57.168 49.816 H 0.0 **** 0.0
4496 C 4.736 79.058 39.332 C 0.0 **** 0.0
4497 H 5.701 79.435 39.671 H 0.0 **** 0.0
4498 H 4.892 78.296 38.568 H 0.0 **** 0.0
4499 H 4.153 79.879 38.914 H 0.0 **** 0.0
4500 H 4.199 78.623 40.175 H 0.0 **** 0.0
4501 C 94.542 58.856 61.709 C 0.0 **** 0.0
4502 H 94.808 58.625 62.741 H 0.0 **** 0.0
4503 H 95.148 59.69 61.356 H 0.0 **** 0.0
4504 H 93.487 59.126 61.659 H 0.0 **** 0.0
4505 H 94.724 57.983 61.083 H 0.0 **** 0.0
4506 C 73.707 70.573 41.927 C 0.0 **** 0.0
4507 H 72.678 70.926 41.988 H 0.0 **** 0.0
4508 H 73.974 70.07 42.857 H 0.0 **** 0.0
4509 H 74.373 71.42 41.767 H 0.0 **** 0.0
4510 H 73.802 69.874 41.096 H 0.0 **** 0.0
4511 C 54.593 34.488 48.879 C 0.0 **** 0.0
4512 H 53.751 34.101 48.306 H 0.0 **** 0.0
4513 H 55.517 34.318 48.326 H 0.0 **** 0.0
4514 H 54.645 33.975 49.84 H 0.0 **** 0.0
4515 H 54.459 35.557 49.045 H 0.0 **** 0.0
4516 C 10.775 31.019 48.359 C 0.0 **** 0.0
4517 H 10.433 30.36 49.157 H 0.0 **** 0.0
4518 H 10.756 32.051 48.707 H 0.0 **** 0.0
4519 H 10.118 30.914 47.495 H 0.0 **** 0.0
4520 H 11.792 30.749 48.076 H 0.0 **** 0.0
4521 C 48.463 52.09 37.098 C 0.0 **** 0.0
4522 H 48.382 51.975 38.179 H 0.0 **** 0.0
4523 H 49.514 52.164 36.818 H 0.0 **** 0.0
4524 H 47.939 52.994 36.789 H 0.0 **** 0.0
4525 H 48.016 51.225 36.607 H 0.0 **** 0.0
4526 C 13.103 62.263 68.765 C 0.0 **** 0.0
4527 H 13.211 61.92 69.794 H 0.0 **** 0.0
4528 H 12.251 62.939 68.695 H 0.0 **** 0.0
4529 H 12.942 61.406 68.112 H 0.0 **** 0.0
4530 H 14.009 62.787 68.46 H 0.0 **** 0.0
4531 C 74.458 63.427 59.625 C 0.0 **** 0.0
4532 H 74.776 63.147 58.621 H 0.0 **** 0.0
4533 H 73.459 63.861 59.582 H 0.0 **** 0.0
4534 H 75.154 64.157 60.037 H 0.0 **** 0.0
4535 H 74.443 62.541 60.261 H 0.0 **** 0.0
4536 C 16.557 10.425 45.901 C 0.0 **** 0.0
4537 H 15.551 10.376 46.319 H 0.0 **** 0.0
4538 H 17.245 9.877 46.546 H 0.0 **** 0.0
4539 H 16.872 11.466 45.833 H 0.0 **** 0.0
4540 H 16.558 9.979 44.906 H 0.0 **** 0.0
4541 C 76.083 32.454 75.165 C 0.0 **** 0.0
4542 H 77.11 32.812 75.238 H 0.0 **** 0.0
4543 H 75.491 33.165 74.589 H 0.0 **** 0.0
4544 H 75.661 32.355 76.165 H 0.0 **** 0.0
4545 H 76.071 31.484 74.668 H 0.0 **** 0.0
4546 C 81.591 32.55 19.251 C 0.0 **** 0.0
4547 H 81.896 32.387 20.285 H 0.0 **** 0.0
4548 H 81.618 31.604 18.711 H 0.0 **** 0.0
4549 H 82.272 33.258 18.779 H 0.0 **** 0.0
4550 H 80.578 32.952 19.231 H 0.0 **** 0.0
4551 C 78.589 59.144 94.121 C 0.0 **** 0.0
4552 H 78.224 60.038 94.626 H 0.0 **** 0.0
4553 H 78.603 59.316 93.044 H 0.0 **** 0.0
4554 H 77.93 58.305 94.346 H 0.0 **** 0.0
4555 H 79.598 58.917 94.466 H 0.0 **** 0.0
4556 C 31.727 36.893 14.368 C 0.0 **** 0.0
4557 H 32.342 36.333 13.663 H 0.0 **** 0.0
4558 H 32.129 37.9 14.479 H 0.0 **** 0.0
4559 H 31.733 36.389 15.334 H 0.0 **** 0.0
4560 H 30.705 36.948 13.993 H 0.0 **** 0.0
4561 C 19.566 55.608 1.277 C 0.0 **** 0.0
4562 H 19.357 54.538 1.287 H 0.0 **** 0.0
4563 H 20.369 55.814 0.569 H 0.0 **** 0.0
4564 H 19.869 55.928 2.274 H 0.0 **** 0.0
4565 H 18.669 56.15 0.977 H 0.0 **** 0.0
4566 C 22.74 47.056 16.905 C 0.0 **** 0.0
4567 H 23.437 46.225 16.801 H 0.0 **** 0.0
4568 H 23.022 47.659 17.769 H 0.0 **** 0.0
4569 H 21.731 46.669 17.045 H 0.0 **** 0.0
4570 H 22.772 47.671 16.006 H 0.0 **** 0.0
4571 C 44.702 97.457 17.125 C 0.0 **** 0.0
4572 H 44.81 97.127 16.092 H 0.0 **** 0.0
4573 H 44.811 96.601 17.792 H 0.0 **** 0.0
4574 H 43.717 97.902 17.263 H 0.0 **** 0.0
4575 H 45.471 98.196 17.352 H 0.0 **** 0.0
4576 C 34.614 72.81 61.95 C 0.0 **** 0.0
4577 H 34.374 72.766 60.888 H 0.0 **** 0.0
4578 H 34.497 71.82 62.391 H 0.0 **** 0.0
4579 H 33.941 73.51 62.445 H 0.0 **** 0.0
4580 H 35.643 73.145 62.076 H 0.0 **** 0.0
4581 C 27.607 12.065 45.729 C 0.0 **** 0.0
4582 H 27.431 12.115 46.803 H 0.0 **** 0.0
4583 H 27.472 11.038 45.387 H 0.0 **** 0.0
4584 H 28.625 12.389 45.512 H 0.0 **** 0.0
4585 H 26.9 12.716 45.214 H 0.0 **** 0.0
4586 C 55.512 67.037 64.943 C 0.0 **** 0.0
4587 H 56.569 67.23 64.762 H 0.0 **** 0.0
4588 H 54.912 67.764 64.395 H 0.0 **** 0.0
4589 H 55.304 67.124 66.01 H 0.0 **** 0.0
4590 H 55.263 66.032 64.605 H 0.0 **** 0.0
4591 C 90.879 21.704 59.887 C 0.0 **** 0.0
4592 H 90.57 21.62 58.845 H 0.0 **** 0.0
4593 H 91.596 22.518 59.988 H 0.0 **** 0.0
4594 H 91.342 20.769 60.204 H 0.0 **** 0.0
4595 H 90.007 21.907 60.509 H 0.0 **** 0.0
4596 C 88.75 75.609 95.343 C 0.0 **** 0.0
4597 H 87.97 75.265 94.664 H 0.0 **** 0.0
4598 H 89.726 75.329 94.947 H 0.0 **** 0.0
4599 H 88.609 75.149 96.321 H 0.0 **** 0.0
4600 H 88.694 76.693 95.44 H 0.0 **** 0.0
4601 C 13.332 30.612 10.558 C 0.0 **** 0.0
4602 H 13.291 30.559 11.646 H 0.0 **** 0.0
4603 H 14.357 30.809 10.243 H 0.0 **** 0.0
4604 H 12.684 31.416 10.209 H 0.0 **** 0.0
4605 H 12.997 29.666 10.135 H 0.0 **** 0.0
4606 C 8.847 63.101 2.073 C 0.0 **** 0.0
4607 H 8.717 63.237 3.147 H 0.0 **** 0.0
4608 H 7.919 62.731 1.638 H 0.0 **** 0.0
4609 H 9.646 62.382 1.893 H 0.0 **** 0.0
4610 H 9.108 64.056 1.616 H 0.0 **** 0.0
4611 C 85.773 52.381 97.926 C 0.0 **** 0.0
4612 H 86.262 51.992 98.819 H 0.0 **** 0.0
4613 H 85.283 53.326 98.163 H 0.0 **** 0.0
4614 H 85.03 51.663 97.578 H 0.0 **** 0.0
4615 H 86.516 52.542 97.146 H 0.0 **** 0.0
4616 C 54.027 6.27 41.644 C 0.0 **** 0.0
4617 H 53.91 5.946 42.678 H 0.0 **** 0.0
4618 H 54.933 5.829 41.227 H 0.0 **** 0.0
4619 H 54.102 7.356 41.611 H 0.0 **** 0.0
4620 H 53.164 5.947 41.062 H 0.0 **** 0.0
4621 C 39.247 55.887 67.648 C 0.0 **** 0.0
4622 H 38.403 55.281 67.319 H 0.0 **** 0.0
4623 H 39.051 56.936 67.422 H 0.0 **** 0.0
4624 H 40.15 55.565 67.129 H 0.0 **** 0.0
4625 H 39.383 55.766 68.723 H 0.0 **** 0.0
4626 C 31.101 61.824 53.133 C 0.0 **** 0.0
4627 H 31.101 61.817 52.043 H 0.0 **** 0.0
4628 H 30.078 61.938 53.495 H 0.0 **** 0.0
4629 H 31.708 62.655 53.492 H 0.0 **** 0.0
4630 H 31.515 60.885 53.502 H 0.0 **** 0.0
4631 C 16.133 57.297 96.899 C 0.0 **** 0.0
4632 H 17.075 57.814 96.712 H 0.0 **** 0.0
4633 H 15.302 57.96 96.658 H 0.0 **** 0.0
4634 H 16.078 57.011 97.949 H 0.0 **** 0.0
4635 H 16.079 56.405 96.276 H 0.0 **** 0.0
4636 C 58.791 2.751 88.108 C 0.0 **** 0.0
4637 H 58.765 2.896 89.188 H 0.0 **** 0.0
4638 H 57.8 2.466 87.756 H 0.0 **** 0.0
4639 H 59.504 1.964 87.864 H 0.0 **** 0.0
4640 H 59.096 3.679 87.625 H 0.0 **** 0.0
4641 C 52.309 87.789 14.138 C 0.0 **** 0.0
4642 H 52.44 88.727 13.597 H 0.0 **** 0.0
4643 H 52.859 87.833 15.078 H 0.0 **** 0.0
4644 H 52.688 86.966 13.533 H 0.0 **** 0.0
4645 H 51.25 87.633 14.342 H 0.0 **** 0.0
4646 C 48.56 45.737 49.256 C 0.0 **** 0.0
4647 H 48.55 45.744 48.166 H 0.0 **** 0.0
4648 H 48.229 46.706 49.629 H 0.0 **** 0.0
4649 H 49.573 45.538 49.608 H 0.0 **** 0.0
4650 H 47.89 44.958 49.62 H 0.0 **** 0.0
4651 C 18.438 75.727 57.544 C 0.0 **** 0.0
4652 H 18.418 74.893 58.246 H 0.0 **** 0.0
4653 H 17.654 75.592 56.798 H 0.0 **** 0.0
4654 H 19.409 75.761 57.049 H 0.0 **** 0.0
4655 H 18.271 76.659 58.082 H 0.0 **** 0.0
4656 C 0.722 58.727 74.063 C 0.0 **** 0.0
4657 H 0.0 59.047 73.312 H 0.0 **** 0.0
4658 H 1.637 58.397 73.57 H 0.0 **** 0.0
4659 H 0.303 57.903 74.642 H 0.0 **** 0.0
4660 H 0.948 59.56 74.729 H 0.0 **** 0.0
4661 C 12.466 70.792 94.086 C 0.0 **** 0.0
4662 H 12.664 71.141 93.073 H 0.0 **** 0.0
4663 H 13.157 71.275 94.778 H 0.0 **** 0.0
4664 H 12.602 69.712 94.131 H 0.0 **** 0.0
4665 H 11.442 71.042 94.362 H 0.0 **** 0.0
4666 C 12.683 39.608 93.954 C 0.0 **** 0.0
4667 H 13.03 39.935 92.974 H 0.0 **** 0.0
4668 H 12.727 40.444 94.653 H 0.0 **** 0.0
4669 H 13.32 38.8 94.314 H 0.0 **** 0.0
4670 H 11.655 39.254 93.876 H 0.0 **** 0.0
4671 C 84.181 76.79 29.712 C 0.0 **** 0.0
4672 H 84.453 76.066 30.479 H 0.0 **** 0.0
4673 H 84.786 77.689 29.83 H 0.0 **** 0.0
4674 H 83.126 77.045 29.811 H 0.0 **** 0.0
4675 H 84.359 76.359 28.726 H 0.0 **** 0.0
4676 C 4.756 40.374 26.95 C 0.0 **** 0.0
4677 H 4.611 40.905 27.89 H 0.0 **** 0.0
4678 H 5.777 39.996 26.9 H 0.0 **** 0.0
4679 H 4.579 41.054 26.117 H 0.0 **** 0.0
4680 H 4.056 39.54 26.892 H 0.0 **** 0.0
4681 C 52.092 93.621 31.707 C 0.0 **** 0.0
4682 H 51.12 93.842 32.148 H 0.0 **** 0.0
4683 H 51.964 92.931 30.872 H 0.0 **** 0.0
4684 H 52.737 93.167 32.459 H 0.0 **** 0.0
4685 H 52.546 94.545 31.349 H 0.0 **** 0.0
4686 C 44.593 23.759 40.774 C 0.0 **** 0.0
4687 H 44.521 23.831 41.859 H 0.0 **** 0.0
4688 H 44.998 22.784 40.501 H 0.0 **** 0.0
4689 H 45.252 24.544 40.401 H 0.0 **** 0.0
4690 H 43.603 23.878 40.335 H 0.0 **** 0.0
4691 C 1.547 21.231 73.687 C 0.0 **** 0.0
4692 H 2.105 21.701 74.497 H 0.0 **** 0.0
4693 H 2.178 20.492 73.193 H 0.0 **** 0.0
4694 H 1.243 21.99 72.967 H 0.0 **** 0.0
4695 H 0.662 20.74 74.093 H 0.0 **** 0.0
4696 C 65.934 64.067 38.31 C 0.0 **** 0.0
4697 H 66.816 64.641 38.025 H 0.0 **** 0.0
4698 H 66.151 63.002 38.223 H 0.0 **** 0.0
4699 H 65.105 64.325 37.652 H 0.0 **** 0.0
4700 H 65.667 64.301 39.341 H 0.0 **** 0.0
4701 C 63.411 81.152 88.44 C 0.0 **** 0.0
4702 H 63.408 81.15 89.53 H 0.0 **** 0.0
4703 H 64.0 80.309 88.078 H 0.0 **** 0.0
4704 H 63.849 82.083 88.079 H 0.0 **** 0.0
4705 H 62.388 81.065 88.074 H 0.0 **** 0.0
4706 C 17.9 16.296 85.409 C 0.0 **** 0.0
4707 H 17.168 17.103 85.382 H 0.0 **** 0.0
4708 H 17.421 15.362 85.114 H 0.0 **** 0.0
4709 H 18.296 16.199 86.42 H 0.0 **** 0.0
4710 H 18.714 16.521 84.72 H 0.0 **** 0.0
4711 C 12.076 43.824 41.894 C 0.0 **** 0.0
4712 H 12.623 44.073 42.803 H 0.0 **** 0.0
4713 H 12.596 44.239 41.031 H 0.0 **** 0.0
4714 H 11.071 44.243 41.949 H 0.0 **** 0.0
4715 H 12.012 42.74 41.794 H 0.0 **** 0.0
4716 C 20.775 96.835 31.349 C 0.0 **** 0.0
4717 H 20.682 96.645 32.418 H 0.0 **** 0.0
4718 H 21.037 97.881 31.187 H 0.0 **** 0.0
4719 H 19.826 96.617 30.858 H 0.0 **** 0.0
4720 H 21.554 96.197 30.933 H 0.0 **** 0.0
4721 C 47.119 25.413 70.432 C 0.0 **** 0.0
4722 H 47.791 24.566 70.567 H 0.0 **** 0.0
4723 H 46.317 25.135 69.747 H 0.0 **** 0.0
4724 H 47.674 26.255 70.02 H 0.0 **** 0.0
4725 H 46.692 25.695 71.395 H 0.0 **** 0.0
4726 C 40.323 13.03 22.866 C 0.0 **** 0.0
4727 H 40.472 13.639 21.975 H 0.0 **** 0.0
4728 H 41.279 12.883 23.369 H 0.0 **** 0.0
4729 H 39.911 12.062 22.58 H 0.0 **** 0.0
4730 H 39.631 13.535 23.54 H 0.0 **** 0.0
4731 C 38.492 30.31 75.448 C 0.0 **** 0.0
4732 H 39.562 30.514 75.419 H 0.0 **** 0.0
4733 H 37.942 31.222 75.216 H 0.0 **** 0.0
4734 H 38.216 29.961 76.443 H 0.0 **** 0.0
4735 H 38.249 29.542 74.713 H 0.0 **** 0.0
4736 C 75.121 54.768 14.571 C 0.0 **** 0.0
4737 H 75.13 54.777 15.661 H 0.0 **** 0.0
4738 H 75.363 53.766 14.214 H 0.0 **** 0.0
4739 H 75.86 55.476 14.196 H 0.0 **** 0.0
4740 H 74.131 55.052 14.214 H 0.0 **** 0.0
4741 C 17.762 85.863 93.449 C 0.0 **** 0.0
4742 H 18.495 85.904 94.254 H 0.0 **** 0.0
4743 H 18.125 86.438 92.597 H 0.0 **** 0.0
4744 H 16.818 86.283 93.795 H 0.0 **** 0.0
4745 H 17.61 84.826 93.148 H 0.0 **** 0.0
4746 C 97.012 80.816 58.942 C 0.0 **** 0.0
4747 H 96.867 81.102 59.984 H 0.0 **** 0.0
4748 H 96.292 80.043 58.673 H 0.0 **** 0.0
4749 H 98.024 80.433 58.808 H 0.0 **** 0.0
4750 H 96.867 81.687 58.303 H 0.0 **** 0.0
4751 C 68.893 55.127 73.978 C 0.0 **** 0.0
4752 H 69.365 56.096 73.819 H 0.0 **** 0.0
4753 H 68.084 54.995 73.26 H 0.0 **** 0.0
4754 H 68.491 55.08 74.991 H 0.0 **** 0.0
4755 H 69.632 54.337 73.844 H 0.0 **** 0.0
4756 C 47.946 53.327 93.584 C 0.0 **** 0.0
4757 H 48.009 53.061 92.528 H 0.0 **** 0.0
4758 H 46.9 53.423 93.873 H 0.0 **** 0.0
4759 H 48.459 54.275 93.75 H 0.0 **** 0.0
4760 H 48.419 52.549 94.183 H 0.0 **** 0.0
4761 C 68.357 90.647 30.337 C 0.0 **** 0.0
4762 H 68.185 91.21 29.42 H 0.0 **** 0.0
4763 H 69.415 90.397 30.417 H 0.0 **** 0.0
4764 H 67.768 89.73 30.316 H 0.0 **** 0.0
4765 H 68.06 91.25 31.194 H 0.0 **** 0.0
4766 C 31.985 87.215 6.163 C 0.0 **** 0.0
4767 H 31.918 87.015 5.093 H 0.0 **** 0.0
4768 H 33.026 87.157 6.479 H 0.0 **** 0.0
4769 H 31.397 86.476 6.707 H 0.0 **** 0.0
4770 H 31.597 88.212 6.371 H 0.0 **** 0.0
4771 C 13.081 25.232 46.949 C 0.0 **** 0.0
4772 H 13.217 25.1 45.876 H 0.0 **** 0.0
4773 H 12.02 25.356 47.167 H 0.0 **** 0.0
4774 H 13.626 26.116 47.278 H 0.0 **** 0.0
4775 H 13.46 24.355 47.473 H 0.0 **** 0.0
4776 C 33.065 52.031 13.936 C 0.0 **** 0.0
4777 H 33.512 51.065 13.701 H 0.0 **** 0.0
4778 H 32.178 51.881 14.553 H 0.0 **** 0.0
4779 H 32.783 52.536 13.012 H 0.0 **** 0.0
4780 H 33.786 52.643 14.479 H 0.0 **** 0.0
4781 C 64.053 40.644 25.057 C 0.0 **** 0.0
4782 H 64.918 40.858 25.686 H 0.0 **** 0.0
4783 H 64.233 39.729 24.493 H 0.0 **** 0.0
4784 H 63.893 41.472 24.367 H 0.0 **** 0.0
4785 H 63.171 40.517 25.685 H 0.0 **** 0.0
4786 C 95.958 28.277 26.488 C 0.0 **** 0.0
4787 H 96.724 27.775 27.08 H 0.0 **** 0.0
4788 H 96.146 28.102 25.428 H 0.0 **** 0.0
4789 H 95.987 29.348 26.69 H 0.0 **** 0.0
4790 H 94.977 27.883 26.754 H 0.0 **** 0.0
4791 C 42.921 11.898 21.576 C 0.0 **** 0.0
4792 H 43.781 11.476 21.055 H 0.0 **** 0.0
4793 H 42.477 11.137 22.219 H 0.0 **** 0.0
4794 H 42.183 12.233 20.847 H 0.0 **** 0.0
4795 H 43.243 12.744 22.183 H 0.0 **** 0.0
4796 C 7.31 49.924 49.002 C 0.0 **** 0.0
4797 H 6.773 50.472 48.228 H 0.0 **** 0.0
4798 H 6.647 49.749 49.85 H 0.0 **** 0.0
4799 H 8.171 50.506 49.328 H 0.0 **** 0.0
4800 H 7.647 48.968 48.602 H 0.0 **** 0.0
4801 C 58.464 52.857 56.752 C 0.0 **** 0.0
4802 H 58.628 52.112 55.974 H 0.0 **** 0.0
4803 H 59.307 53.548 56.777 H 0.0 **** 0.0
4804 H 58.373 52.36 57.718 H 0.0 **** 0.0
4805 H 57.548 53.408 56.54 H 0.0 **** 0.0
4806 C 81.478 73.345 86.686 C 0.0 **** 0.0
4807 H 81.589 74.393 86.405 H 0.0 **** 0.0
4808 H 82.37 72.793 86.388 H 0.0 **** 0.0
4809 H 80.606 72.926 86.184 H 0.0 **** 0.0
4810 H 81.347 73.271 87.765 H 0.0 **** 0.0
4811 C 4.82 67.815 62.509 C 0.0 **** 0.0
4812 H 5.24 68.661 61.966 H 0.0 **** 0.0
4813 H 5.531 67.477 63.263 H 0.0 **** 0.0
4814 H 4.615 67.002 61.813 H 0.0 **** 0.0
4815 H 3.893 68.119 62.995 H 0.0 **** 0.0
4816 C 44.294 93.859 22.106 C 0.0 **** 0.0
4817 H 43.699 93.109 21.584 H 0.0 **** 0.0
4818 H 43.695 94.311 22.897 H 0.0 **** 0.0
4819 H 44.606 94.63 21.401 H 0.0 **** 0.0
4820 H 45.174 93.386 22.541 H 0.0 **** 0.0
4821 C 65.109 12.362 26.997 C 0.0 **** 0.0
4822 H 65.031 12.513 28.074 H 0.0 **** 0.0
4823 H 65.873 11.612 26.789 H 0.0 **** 0.0
4824 H 65.383 13.302 26.518 H 0.0 **** 0.0
4825 H 64.149 12.022 26.607 H 0.0 **** 0.0
4826 C 77.538 44.268 46.358 C 0.0 **** 0.0
4827 H 78.096 45.114 45.956 H 0.0 **** 0.0
4828 H 76.494 44.344 46.051 H 0.0 **** 0.0
4829 H 77.599 44.276 47.446 H 0.0 **** 0.0
4830 H 77.962 43.339 45.977 H 0.0 **** 0.0
4831 C 47.826 88.559 56.157 C 0.0 **** 0.0
4832 H 47.342 89.426 56.607 H 0.0 **** 0.0
4833 H 48.791 88.393 56.636 H 0.0 **** 0.0
4834 H 47.974 88.738 55.092 H 0.0 **** 0.0
4835 H 47.196 87.68 56.294 H 0.0 **** 0.0
4836 C 14.602 28.617 54.113 C 0.0 **** 0.0
4837 H 14.99 29.427 53.496 H 0.0 **** 0.0
4838 H 15.362 28.316 54.835 H 0.0 **** 0.0
4839 H 14.346 27.768 53.479 H 0.0 **** 0.0
4840 H 13.712 28.957 54.642 H 0.0 **** 0.0
4841 C 95.332 11.219 55.891 C 0.0 **** 0.0
4842 H 94.913 12.149 56.276 H 0.0 **** 0.0
4843 H 94.889 10.375 56.421 H 0.0 **** 0.0
4844 H 96.411 11.218 56.041 H 0.0 **** 0.0
4845 H 95.112 11.136 54.826 H 0.0 **** 0.0
4846 C 10.25 60.128 16.627 C 0.0 **** 0.0
4847 H 9.793 60.585 15.749 H 0.0 **** 0.0
4848 H 11.028 59.433 16.312 H 0.0 **** 0.0
4849 H 9.489 59.59 17.193 H 0.0 **** 0.0
4850 H 10.688 60.905 17.254 H 0.0 **** 0.0
4851 C 15.672 21.088 6.838 C 0.0 **** 0.0
4852 H 16.464 21.378 7.528 H 0.0 **** 0.0
4853 H 15.505 21.891 6.119 H 0.0 **** 0.0
4854 H 14.754 20.902 7.396 H 0.0 **** 0.0
4855 H 15.965 20.181 6.309 H 0.0 **** 0.0
4856 C 47.174 29.839 15.952 C 0.0 **** 0.0
4857 H 46.944 30.24 14.964 H 0.0 **** 0.0
4858 H 48.21 30.065 16.203 H 0.0 **** 0.0
4859 H 47.027 28.759 15.948 H 0.0 **** 0.0
4860 H 46.513 30.293 16.69 H 0.0 **** 0.0
4861 C 80.666 9.784 86.781 C 0.0 **** 0.0
4862 H 80.937 9.156 85.932 H 0.0 **** 0.0
4863 H 80.272 9.159 87.583 H 0.0 **** 0.0
4864 H 79.908 10.503 86.474 H 0.0 **** 0.0
4865 H 81.55 10.315 87.135 H 0.0 **** 0.0
4866 C 36.312 76.52 95.699 C 0.0 **** 0.0
4867 H 35.512 76.412 96.432 H 0.0 **** 0.0
4868 H 36.711 75.536 95.45 H 0.0 **** 0.0
4869 H 37.105 77.14 96.115 H 0.0 **** 0.0
4870 H 35.917 76.99 94.798 H 0.0 **** 0.0
4871 C 91.748 16.902 33.606 C 0.0 **** 0.0
4872 H 91.59 16.817 34.681 H 0.0 **** 0.0
4873 H 92.626 17.52 33.416 H 0.0 **** 0.0
4874 H 90.874 17.362 33.145 H 0.0 **** 0.0
4875 H 91.903 15.91 33.182 H 0.0 **** 0.0
4876 C 24.175 21.443 75.355 C 0.0 **** 0.0
4877 H 23.935 22.039 76.235 H 0.0 **** 0.0
4878 H 24.958 20.726 75.604 H 0.0 **** 0.0
4879 H 24.523 22.098 74.556 H 0.0 **** 0.0
4880 H 23.284 20.909 75.025 H 0.0 **** 0.0
4881 C 66.288 17.198 36.678 C 0.0 **** 0.0
4882 H 66.648 16.811 35.725 H 0.0 **** 0.0
4883 H 67.09 17.746 37.174 H 0.0 **** 0.0
4884 H 65.97 16.368 37.31 H 0.0 **** 0.0
4885 H 65.445 17.866 36.503 H 0.0 **** 0.0
4886 C 96.538 57.557 27.475 C 0.0 **** 0.0
4887 H 96.502 57.552 28.565 H 0.0 **** 0.0
4888 H 96.275 58.549 27.108 H 0.0 **** 0.0
4889 H 95.831 56.825 27.086 H 0.0 **** 0.0
4890 H 97.545 57.302 27.144 H 0.0 **** 0.0
4891 C 49.598 33.839 64.579 C 0.0 **** 0.0
4892 H 50.582 33.715 64.126 H 0.0 **** 0.0
4893 H 49.187 32.86 64.827 H 0.0 **** 0.0
4894 H 48.936 34.345 63.876 H 0.0 **** 0.0
4895 H 49.689 34.436 65.486 H 0.0 **** 0.0
4896 C 29.754 32.385 59.03 C 0.0 **** 0.0
4897 H 30.75 32.361 58.589 H 0.0 **** 0.0
4898 H 29.429 33.42 59.139 H 0.0 **** 0.0
4899 H 29.779 31.907 60.01 H 0.0 **** 0.0
4900 H 29.057 31.852 58.384 H 0.0 **** 0.0
4901 C 52.017 1.519 53.395 C 0.0 **** 0.0
4902 H 51.936 1.004 52.437 H 0.0 **** 0.0
4903 H 51.5 2.477 53.337 H 0.0 **** 0.0
4904 H 53.068 1.687 53.629 H 0.0 **** 0.0
4905 H 51.564 0.907 54.175 H 0.0 **** 0.0
4906 C 24.61 82.04 42.022 C 0.0 **** 0.0
4907 H 25.085 82.158 42.996 H 0.0 **** 0.0
4908 H 23.824 81.287 42.091 H 0.0 **** 0.0
4909 H 25.354 81.723 41.291 H 0.0 **** 0.0
4910 H 24.176 82.99 41.711 H 0.0 **** 0.0
4911 C 60.536 12.726 65.211 C 0.0 **** 0.0
4912 H 60.514 12.733 64.121 H 0.0 **** 0.0
4913 H 61.525 12.42 65.552 H 0.0 **** 0.0
4914 H 59.789 12.026 65.585 H 0.0 **** 0.0
4915 H 60.316 13.726 65.585 H 0.0 **** 0.0
4916 C 61.707 44.047 40.322 C 0.0 **** 0.0
4917 H 61.831 44.067 41.405 H 0.0 **** 0.0
4918 H 62.686 44.069 39.844 H 0.0 **** 0.0
4919 H 61.128 44.916 40.007 H 0.0 **** 0.0
4920 H 61.181 43.137 40.033 H 0.0 **** 0.0
4921 C 52.866 37.473 24.654 C 0.0 **** 0.0
4922 H 51.949 37.131 25.134 H 0.0 **** 0.0
4923 H 53.386 36.621 24.215 H 0.0 **** 0.0
4924 H 53.508 37.949 25.395 H 0.0 **** 0.0
4925 H 52.62 38.191 23.872 H 0.0 **** 0.0
4926 C 56.213 11.046 75.811 C 0.0 **** 0.0
4927 H 56.53 11.039 76.854 H 0.0 **** 0.0
4928 H 56.914 11.64 75.223 H 0.0 **** 0.0
4929 H 55.217 11.481 75.737 H 0.0 **** 0.0
4930 H 56.193 10.025 75.431 H 0.0 **** 0.0
4931 C 37.516 7.897 91.403 C 0.0 **** 0.0
4932 H 37.466 7.022 90.756 H 0.0 **** 0.0
4933 H 38.509 8.343 91.335 H 0.0 **** 0.0
4934 H 37.321 7.599 92.433 H 0.0 **** 0.0
4935 H 36.768 8.625 91.088 H 0.0 **** 0.0
4936 C 22.005 45.485 69.444 C 0.0 **** 0.0
4937 H 22.768 45.833 68.747 H 0.0 **** 0.0
4938 H 21.019 45.756 69.068 H 0.0 **** 0.0
4939 H 22.164 45.95 70.417 H 0.0 **** 0.0
4940 H 22.072 44.402 69.544 H 0.0 **** 0.0
4941 C 39.265 50.975 31.089 C 0.0 **** 0.0
4942 H 38.69 51.104 32.006 H 0.0 **** 0.0
4943 H 40.166 51.588 31.137 H 0.0 **** 0.0
4944 H 38.661 51.283 30.235 H 0.0 **** 0.0
4945 H 39.543 49.927 30.979 H 0.0 **** 0.0
4946 C 68.65 15.359 68.398 C 0.0 **** 0.0
4947 H 67.606 15.457 68.098 H 0.0 **** 0.0
4948 H 68.889 16.125 69.136 H 0.0 **** 0.0
4949 H 69.291 15.483 67.525 H 0.0 **** 0.0
4950 H 68.812 14.373 68.832 H 0.0 **** 0.0
4951 C 4.925 56.718 19.584 C 0.0 **** 0.0
4952 H 3.88 56.82 19.877 H 0.0 **** 0.0
4953 H 5.443 56.084 20.303 H 0.0 **** 0.0
4954 H 5.394 57.702 19.564 H 0.0 **** 0.0
4955 H 4.982 56.268 18.593 H 0.0 **** 0.0
4956 C 33.377 24.554 5.134 C 0.0 **** 0.0
4957 H 34.049 24.045 5.825 H 0.0 **** 0.0
4958 H 32.348 24.436 5.475 H 0.0 **** 0.0
4959 H 33.482 24.121 4.14 H 0.0 **** 0.0
4960 H 33.629 25.614 5.098 H 0.0 **** 0.0
4961 C 67.237 67.008 61.315 C 0.0 **** 0.0
4962 H 67.656 66.002 61.347 H 0.0 **** 0.0
4963 H 66.828 67.262 62.293 H 0.0 **** 0.0
4964 H 66.445 67.048 60.568 H 0.0 **** 0.0
4965 H 68.02 67.719 61.053 H 0.0 **** 0.0
4966 C 90.696 76.018 10.026 C 0.0 **** 0.0
4967 H 90.706 76.203 8.952 H 0.0 **** 0.0
4968 H 91.705 75.778 10.362 H 0.0 **** 0.0
4969 H 90.031 75.183 10.245 H 0.0 **** 0.0
4970 H 90.342 76.91 10.544 H 0.0 **** 0.0
4971 C 81.153 34.138 22.217 C 0.0 **** 0.0
4972 H 81.374 34.514 21.219 H 0.0 **** 0.0
4973 H 81.483 34.864 22.961 H 0.0 **** 0.0
4974 H 81.676 33.194 22.374 H 0.0 **** 0.0
4975 H 80.079 33.979 22.316 H 0.0 **** 0.0
4976 C 33.302 27.395 56.853 C 0.0 **** 0.0
4977 H 34.126 26.692 56.98 H 0.0 **** 0.0
4978 H 32.83 27.23 55.885 H 0.0 **** 0.0
4979 H 33.685 28.415 56.903 H 0.0 **** 0.0
4980 H 32.57 27.243 57.646 H 0.0 **** 0.0
4981 C 87.991 69.396 95.502 C 0.0 **** 0.0
4982 H 88.311 69.455 94.462 H 0.0 **** 0.0
4983 H 87.704 70.389 95.85 H 0.0 **** 0.0
4984 H 88.811 69.019 96.113 H 0.0 **** 0.0
4985 H 87.138 68.722 95.582 H 0.0 **** 0.0
4986 C 10.274 10.128 6.448 C 0.0 **** 0.0
4987 H 9.965 10.542 7.408 H 0.0 **** 0.0
4988 H 9.553 10.413 5.681 H 0.0 **** 0.0
4989 H 10.32 9.041 6.519 H 0.0 **** 0.0
4990 H 11.257 10.517 6.185 H 0.0 **** 0.0
4991 C 74.625 8.543 72.491 C 0.0 **** 0.0
4992 H 73.939 8.144 71.744 H 0.0 **** 0.0
4993 H 75.622 8.134 72.325 H 0.0 **** 0.0
4994 H 74.279 8.265 73.487 H 0.0 **** 0.0
4995 H 74.659 9.63 72.409 H 0.0 **** 0.0
4996 C 6.553 44.736 44.564 C 0.0 **** 0.0
4997 H 5.943 45.365 45.212 H 0.0 **** 0.0
4998 H 6.285 43.69 44.715 H 0.0 **** 0.0
4999 H 7.606 44.879 44.805 H 0.0 **** 0.0
5000 H 6.378 45.01 43.524 H 0.0 **** 0.0
5001 C 22.496 93.092 31.78 C 0.0 **** 0.0
5002 H 23.418 93.412 32.266 H 0.0 **** 0.0
5003 H 22.677 92.166 31.233 H 0.0 **** 0.0
5004 H 22.163 93.865 31.087 H 0.0 **** 0.0
5005 H 21.727 92.924 32.534 H 0.0 **** 0.0
5006 C 13.096 30.361 18.013 C 0.0 **** 0.0
5007 H 13.654 30.286 17.08 H 0.0 **** 0.0
5008 H 13.209 31.365 18.423 H 0.0 **** 0.0
5009 H 13.481 29.631 18.726 H 0.0 **** 0.0
5010 H 12.041 30.162 17.823 H 0.0 **** 0.0
5011 C 58.658 71.693 28.417 C 0.0 **** 0.0
5012 H 59.06 70.682 28.496 H 0.0 **** 0.0
5013 H 58.22 71.833 27.429 H 0.0 **** 0.0
5014 H 59.46 72.415 28.566 H 0.0 **** 0.0
5015 H 57.892 71.838 29.178 H 0.0 **** 0.0
5016 C 60.03 46.807 60.719 C 0.0 **** 0.0
5017 H 60.855 46.709 61.425 H 0.0 **** 0.0
5018 H 59.474 45.87 60.678 H 0.0 **** 0.0
5019 H 60.425 47.039 59.73 H 0.0 **** 0.0
5020 H 59.368 47.609 61.044 H 0.0 **** 0.0
5021 C 37.046 39.357 49.578 C 0.0 **** 0.0
5022 H 37.038 39.313 50.668 H 0.0 **** 0.0
5023 H 37.418 40.33 49.257 H 0.0 **** 0.0
5024 H 36.034 39.211 49.201 H 0.0 **** 0.0
5025 H 37.696 38.573 49.189 H 0.0 **** 0.0
5026 C 57.16 57.699 94.83 C 0.0 **** 0.0
5027 H 57.929 58.174 95.44 H 0.0 **** 0.0
5028 H 56.578 58.466 94.319 H 0.0 **** 0.0
5029 H 56.503 57.109 95.469 H 0.0 **** 0.0
5030 H 57.632 57.049 94.094 H 0.0 **** 0.0
5031 C 79.898 29.794 24.776 C 0.0 **** 0.0
5032 H 79.001 29.34 24.356 H 0.0 **** 0.0
5033 H 80.577 30.071 23.97 H 0.0 **** 0.0
5034 H 80.391 29.08 25.437 H 0.0 **** 0.0
5035 H 79.624 30.684 25.343 H 0.0 **** 0.0
5036 C 77.238 55.214 78.746 C 0.0 **** 0.0
5037 H 77.064 54.653 79.664 H 0.0 **** 0.0
5038 H 76.656 54.775 77.935 H 0.0 **** 0.0
5039 H 78.298 55.178 78.494 H 0.0 **** 0.0
5040 H 76.934 56.251 78.892 H 0.0 **** 0.0
5041 C 67.546 22.278 90.802 C 0.0 **** 0.0
5042 H 66.921 22.904 90.166 H 0.0 **** 0.0
5043 H 67.166 21.257 90.792 H 0.0 **** 0.0
5044 H 67.528 22.663 91.821 H 0.0 **** 0.0
5045 H 68.57 22.289 90.428 H 0.0 **** 0.0
5046 C 5.154 92.8 28.368 C 0.0 **** 0.0
5047 H 5.31 93.194 27.364 H 0.0 **** 0.0
5048 H 5.301 93.597 29.098 H 0.0 **** 0.0
5049 H 5.867 91.997 28.558 H 0.0 **** 0.0
5050 H 4.139 92.413 28.453 H 0.0 **** 0.0
5051 C 52.291 33.284 80.028 C 0.0 **** 0.0
5052 H 51.594 32.89 79.288 H 0.0 **** 0.0
5053 H 51.935 33.041 81.029 H 0.0 **** 0.0
5054 H 52.361 34.367 79.919 H 0.0 **** 0.0
5055 H 53.274 32.84 79.873 H 0.0 **** 0.0
5056 C 73.628 66.572 60.587 C 0.0 **** 0.0
5057 H 73.325 67.613 60.477 H 0.0 **** 0.0
5058 H 72.811 65.921 60.275 H 0.0 **** 0.0
5059 H 73.873 66.373 61.631 H 0.0 **** 0.0
5060 H 74.503 66.38 59.966 H 0.0 **** 0.0
5061 C 56.26 35.096 52.075 C 0.0 **** 0.0
5062 H 57.137 34.948 51.446 H 0.0 **** 0.0
5063 H 56.072 34.192 52.656 H 0.0 **** 0.0
5064 H 55.394 35.312 51.448 H 0.0 **** 0.0
5065 H 56.436 35.933 52.752 H 0.0 **** 0.0
5066 C 71.363 22.125 39.04 C 0.0 **** 0.0
5067 H 70.801 22.272 38.118 H 0.0 **** 0.0
5068 H 71.174 21.122 39.425 H 0.0 **** 0.0
5069 H 71.05 22.863 39.778 H 0.0 **** 0.0
5070 H 72.428 22.241 38.838 H 0.0 **** 0.0
5071 C 73.136 45.398 28.177 C 0.0 **** 0.0
5072 H 72.795 46.165 27.482 H 0.0 **** 0.0
5073 H 72.958 44.412 27.746 H 0.0 **** 0.0
5074 H 72.59 45.489 29.116 H 0.0 **** 0.0
5075 H 74.203 45.525 28.364 H 0.0 **** 0.0
5076 C 26.888 2.782 65.256 C 0.0 **** 0.0
5077 H 26.376 3.73 65.423 H 0.0 **** 0.0
5078 H 27.917 2.859 65.608 H 0.0 **** 0.0
5079 H 26.885 2.551 64.191 H 0.0 **** 0.0
5080 H 26.375 1.991 65.802 H 0.0 **** 0.0
5081 C 66.994 41.197 63.315 C 0.0 **** 0.0
5082 H 66.683 40.764 64.266 H 0.0 **** 0.0
5083 H 66.213 41.863 62.947 H 0.0 **** 0.0
5084 H 67.164 40.4 62.591 H 0.0 **** 0.0
5085 H 67.916 41.761 63.458 H 0.0 **** 0.0
5086 C 49.293 28.136 46.269 C 0.0 **** 0.0
5087 H 48.395 27.829 45.733 H 0.0 **** 0.0
5088 H 49.294 29.22 46.385 H 0.0 **** 0.0
5089 H 50.174 27.83 45.705 H 0.0 **** 0.0
5090 H 49.309 27.665 47.252 H 0.0 **** 0.0
5091 C 14.757 42.313 78.01 C 0.0 **** 0.0
5092 H 15.754 41.95 77.758 H 0.0 **** 0.0
5093 H 14.069 41.469 78.074 H 0.0 **** 0.0
5094 H 14.415 43.002 77.237 H 0.0 **** 0.0
5095 H 14.79 42.829 78.969 H 0.0 **** 0.0
5096 C 77.586 59.834 86.486 C 0.0 **** 0.0
5097 H 78.544 59.85 87.007 H 0.0 **** 0.0
5098 H 76.884 60.493 86.996 H 0.0 **** 0.0
5099 H 77.193 58.817 86.481 H 0.0 **** 0.0
5100 H 77.725 60.174 85.46 H 0.0 **** 0.0
5101 C 10.907 85.276 5.546 C 0.0 **** 0.0
5102 H 10.003 85.243 6.155 H 0.0 **** 0.0
5103 H 11.719 85.715 6.125 H 0.0 **** 0.0
5104 H 10.724 85.88 4.658 H 0.0 **** 0.0
5105 H 11.179 84.264 5.247 H 0.0 **** 0.0
5106 C 11.088 7.206 45.642 C 0.0 **** 0.0
5107 H 11.297 6.865 44.628 H 0.0 **** 0.0
5108 H 11.457 8.224 45.766 H 0.0 **** 0.0
5109 H 11.585 6.549 46.356 H 0.0 **** 0.0
5110 H 10.012 7.186 45.817 H 0.0 **** 0.0
5111 C 41.359 74.331 82.715 C 0.0 **** 0.0
5112 H 41.289 74.461 83.795 H 0.0 **** 0.0
5113 H 42.376 74.551 82.388 H 0.0 **** 0.0
5114 H 40.664 75.011 82.222 H 0.0 **** 0.0
5115 H 41.108 73.303 82.456 H 0.0 **** 0.0
5116 C 66.218 13.921 63.677 C 0.0 **** 0.0
5117 H 66.666 14.902 63.84 H 0.0 **** 0.0
5118 H 66.095 13.753 62.607 H 0.0 **** 0.0
5119 H 65.245 13.881 64.166 H 0.0 **** 0.0
5120 H 66.867 13.152 64.094 H 0.0 **** 0.0
5121 C 65.555 1.633 88.687 C 0.0 **** 0.0
5122 H 65.555 1.924 89.738 H 0.0 **** 0.0
5123 H 66.52 1.193 88.433 H 0.0 **** 0.0
5124 H 65.381 2.512 88.067 H 0.0 **** 0.0
5125 H 64.765 0.903 88.513 H 0.0 **** 0.0
5126 C 70.24 51.499 53.887 C 0.0 **** 0.0
5127 H 70.882 52.233 53.4 H 0.0 **** 0.0
5128 H 70.79 50.567 54.02 H 0.0 **** 0.0
5129 H 69.361 51.318 53.269 H 0.0 **** 0.0
5130 H 69.928 51.879 54.86 H 0.0 **** 0.0
5131 C 72.076 1.433 11.128 C 0.0 **** 0.0
5132 H 72.043 1.604 12.204 H 0.0 **** 0.0
5133 H 71.596 0.482 10.897 H 0.0 **** 0.0
5134 H 73.114 1.407 10.797 H 0.0 **** 0.0
5135 H 71.55 2.24 10.616 H 0.0 **** 0.0
5136 C 15.537 4.379 41.051 C 0.0 **** 0.0
5137 H 15.34 3.659 41.845 H 0.0 **** 0.0
5138 H 15.916 5.304 41.486 H 0.0 **** 0.0
5139 H 14.613 4.584 40.51 H 0.0 **** 0.0
5140 H 16.278 3.969 40.365 H 0.0 **** 0.0
5141 C 70.23 40.622 80.972 C 0.0 **** 0.0
5142 H 69.998 40.134 81.918 H 0.0 **** 0.0
5143 H 71.296 40.529 80.767 H 0.0 **** 0.0
5144 H 69.961 41.677 81.032 H 0.0 **** 0.0
5145 H 69.663 40.148 80.17 H 0.0 **** 0.0
5146 C 34.862 30.993 40.193 C 0.0 **** 0.0
5147 H 35.927 31.123 40.386 H 0.0 **** 0.0
5148 H 34.592 29.947 40.34 H 0.0 **** 0.0
5149 H 34.64 31.286 39.167 H 0.0 **** 0.0
5150 H 34.289 31.616 40.881 H 0.0 **** 0.0
5151 C 69.537 67.455 9.659 C 0.0 **** 0.0
5152 H 68.811 66.647 9.566 H 0.0 **** 0.0
5153 H 70.116 67.531 8.738 H 0.0 **** 0.0
5154 H 70.207 67.248 10.493 H 0.0 **** 0.0
5155 H 69.014 68.395 9.838 H 0.0 **** 0.0
5156 C 77.952 91.507 49.247 C 0.0 **** 0.0
5157 H 78.706 90.725 49.333 H 0.0 **** 0.0
5158 H 76.963 91.053 49.183 H 0.0 **** 0.0
5159 H 78.14 92.096 48.348 H 0.0 **** 0.0
5160 H 78.0 92.155 50.122 H 0.0 **** 0.0
5161 C 82.652 23.491 8.627 C 0.0 **** 0.0
5162 H 82.927 23.035 7.676 H 0.0 **** 0.0
5163 H 82.168 22.747 9.26 H 0.0 **** 0.0
5164 H 81.964 24.318 8.447 H 0.0 **** 0.0
5165 H 83.547 23.865 9.123 H 0.0 **** 0.0
5166 C 27.295 67.551 95.961 C 0.0 **** 0.0
5167 H 27.501 66.548 96.335 H 0.0 **** 0.0
5168 H 26.22 67.675 95.826 H 0.0 **** 0.0
5169 H 27.801 67.694 95.006 H 0.0 **** 0.0
5170 H 27.659 68.287 96.678 H 0.0 **** 0.0
5171 C 59.877 71.939 68.399 C 0.0 **** 0.0
5172 H 59.891 71.961 67.309 H 0.0 **** 0.0
5173 H 59.281 71.091 68.736 H 0.0 **** 0.0
5174 H 59.44 72.863 68.776 H 0.0 **** 0.0
5175 H 60.896 71.839 68.773 H 0.0 **** 0.0
5176 C 31.08 18.079 24.507 C 0.0 **** 0.0
5177 H 30.843 18.308 25.546 H 0.0 **** 0.0
5178 H 30.967 17.008 24.337 H 0.0 **** 0.0
5179 H 32.107 18.375 24.295 H 0.0 **** 0.0
5180 H 30.402 18.625 23.851 H 0.0 **** 0.0
5181 C 4.977 14.544 41.324 C 0.0 **** 0.0
5182 H 5.018 14.761 42.391 H 0.0 **** 0.0
5183 H 3.981 14.186 41.064 H 0.0 **** 0.0
5184 H 5.714 13.778 41.08 H 0.0 **** 0.0
5185 H 5.196 15.451 40.76 H 0.0 **** 0.0
5186 C 90.784 27.445 82.007 C 0.0 **** 0.0
5187 H 90.681 27.627 80.937 H 0.0 **** 0.0
5188 H 89.8 27.272 82.442 H 0.0 **** 0.0
5189 H 91.244 28.312 82.481 H 0.0 **** 0.0
5190 H 91.412 26.568 82.167 H 0.0 **** 0.0
5191 C 87.27 20.148 44.49 C 0.0 **** 0.0
5192 H 87.128 20.424 43.445 H 0.0 **** 0.0
5193 H 87.075 19.083 44.613 H 0.0 **** 0.0
5194 H 86.581 20.718 45.113 H 0.0 **** 0.0
5195 H 88.296 20.368 44.786 H 0.0 **** 0.0
5196 C 58.734 14.735 14.7 C 0.0 **** 0.0
5197 H 59.104 14.105 13.891 H 0.0 **** 0.0
5198 H 58.243 14.114 15.449 H 0.0 **** 0.0
5199 H 58.021 15.457 14.301 H 0.0 **** 0.0
5200 H 59.569 15.266 15.158 H 0.0 **** 0.0
5201 C 1.391 64.25 58.458 C 0.0 **** 0.0
5202 H 2.352 63.739 58.402 H 0.0 **** 0.0
5203 H 0.588 63.531 58.298 H 0.0 **** 0.0
5204 H 1.346 65.023 57.691 H 0.0 **** 0.0
5205 H 1.28 64.707 59.442 H 0.0 **** 0.0
5206 C 41.648 22.917 95.418 C 0.0 **** 0.0
5207 H 41.473 23.621 94.605 H 0.0 **** 0.0
5208 H 41.939 23.465 96.315 H 0.0 **** 0.0
5209 H 42.446 22.229 95.138 H 0.0 **** 0.0
5210 H 40.736 22.355 95.616 H 0.0 **** 0.0
5211 C 43.803 28.654 9.213 C 0.0 **** 0.0
5212 H 43.124 28.229 9.952 H 0.0 **** 0.0
5213 H 44.23 27.852 8.61 H 0.0 **** 0.0
5214 H 44.602 29.192 9.722 H 0.0 **** 0.0
5215 H 43.254 29.341 8.569 H 0.0 **** 0.0
5216 C 82.516 83.735 59.928 C 0.0 **** 0.0
5217 H 83.17 84.39 60.503 H 0.0 **** 0.0
5218 H 82.954 82.739 59.874 H 0.0 **** 0.0
5219 H 82.397 84.135 58.921 H 0.0 **** 0.0
5220 H 81.541 83.679 60.413 H 0.0 **** 0.0
5221 C 22.551 63.391 87.315 C 0.0 **** 0.0
5222 H 22.265 62.653 86.566 H 0.0 **** 0.0
5223 H 23.184 64.149 86.854 H 0.0 **** 0.0
5224 H 23.1 62.899 88.119 H 0.0 **** 0.0
5225 H 21.656 63.862 87.722 H 0.0 **** 0.0
5226 C 26.459 46.406 15.432 C 0.0 **** 0.0
5227 H 26.491 46.524 14.349 H 0.0 **** 0.0
5228 H 27.414 46.011 15.782 H 0.0 **** 0.0
5229 H 25.66 45.714 15.699 H 0.0 **** 0.0
5230 H 26.273 47.373 15.898 H 0.0 **** 0.0
5231 C 36.83 27.861 35.961 C 0.0 **** 0.0
5232 H 36.457 27.52 34.995 H 0.0 **** 0.0
5233 H 36.029 27.807 36.699 H 0.0 **** 0.0
5234 H 37.174 28.892 35.874 H 0.0 **** 0.0
5235 H 37.658 27.226 36.276 H 0.0 **** 0.0
5236 C 24.819 24.231 11.464 C 0.0 **** 0.0
5237 H 25.556 23.476 11.742 H 0.0 **** 0.0
5238 H 23.823 23.886 11.743 H 0.0 **** 0.0
5239 H 24.858 24.397 10.388 H 0.0 **** 0.0
5240 H 25.041 25.163 11.984 H 0.0 **** 0.0
5241 C 50.854 66.343 9.64 C 0.0 **** 0.0
5242 H 50.062 65.595 9.613 H 0.0 **** 0.0
5243 H 51.309 66.354 10.631 H 0.0 **** 0.0
5244 H 50.433 67.325 9.422 H 0.0 **** 0.0
5245 H 51.61 66.099 8.895 H 0.0 **** 0.0
5246 C 5.507 83.994 47.629 C 0.0 **** 0.0
5247 H 5.476 82.957 47.965 H 0.0 **** 0.0
5248 H 4.689 84.549 48.088 H 0.0 **** 0.0
5249 H 5.406 84.027 46.545 H 0.0 **** 0.0
5250 H 6.458 84.441 47.92 H 0.0 **** 0.0
5251 C 65.32 28.184 38.19 C 0.0 **** 0.0
5252 H 65.345 28.813 37.3 H 0.0 **** 0.0
5253 H 65.474 28.801 39.075 H 0.0 **** 0.0
5254 H 66.109 27.435 38.126 H 0.0 **** 0.0
5255 H 64.352 27.688 38.256 H 0.0 **** 0.0
5256 C 12.984 38.878 50.502 C 0.0 **** 0.0
5257 H 13.533 38.718 49.574 H 0.0 **** 0.0
5258 H 13.689 39.036 51.318 H 0.0 **** 0.0
5259 H 12.37 38.003 50.716 H 0.0 **** 0.0
5260 H 12.344 39.755 50.399 H 0.0 **** 0.0
5261 C 80.228 97.671 39.91 C 0.0 **** 0.0
5262 H 80.341 97.687 40.994 H 0.0 **** 0.0
5263 H 79.168 97.686 39.655 H 0.0 **** 0.0
5264 H 80.685 96.766 39.51 H 0.0 **** 0.0
5265 H 80.718 98.545 39.481 H 0.0 **** 0.0
5266 C 29.7 26.015 59.586 C 0.0 **** 0.0
5267 H 28.979 25.873 58.781 H 0.0 **** 0.0
5268 H 29.252 26.625 60.37 H 0.0 **** 0.0
5269 H 30.585 26.517 59.195 H 0.0 **** 0.0
5270 H 29.983 25.045 59.995 H 0.0 **** 0.0
5271 C 70.16 9.255 46.167 C 0.0 **** 0.0
5272 H 69.881 8.443 46.839 H 0.0 **** 0.0
5273 H 71.184 9.565 46.378 H 0.0 **** 0.0
5274 H 69.486 10.098 46.316 H 0.0 **** 0.0
5275 H 70.09 8.911 45.135 H 0.0 **** 0.0
5276 C 33.388 43.044 73.151 C 0.0 **** 0.0
5277 H 34.023 43.27 72.295 H 0.0 **** 0.0
5278 H 33.737 42.129 73.631 H 0.0 **** 0.0
5279 H 32.36 42.908 72.815 H 0.0 **** 0.0
5280 H 33.432 43.867 73.863 H 0.0 **** 0.0
5281 C 59.214 12.067 82.524 C 0.0 **** 0.0
5282 H 59.288 11.767 83.569 H 0.0 **** 0.0
5283 H 59.867 12.922 82.344 H 0.0 **** 0.0
5284 H 58.184 12.342 82.296 H 0.0 **** 0.0
5285 H 59.518 11.237 81.886 H 0.0 **** 0.0
5286 C 2.826 79.074 54.712 C 0.0 **** 0.0
5287 H 2.201 78.296 54.274 H 0.0 **** 0.0
5288 H 3.875 78.846 54.524 H 0.0 **** 0.0
5289 H 2.65 79.117 55.787 H 0.0 **** 0.0
5290 H 2.576 80.035 54.264 H 0.0 **** 0.0
5291 C 57.589 81.608 73.998 C 0.0 **** 0.0
5292 H 57.045 82.525 73.776 H 0.0 **** 0.0
5293 H 58.253 81.369 73.167 H 0.0 **** 0.0
5294 H 56.881 80.792 74.144 H 0.0 **** 0.0
5295 H 58.177 81.745 74.906 H 0.0 **** 0.0
5296 C 90.806 29.116 94.725 C 0.0 **** 0.0
5297 H 90.193 29.336 95.599 H 0.0 **** 0.0
5298 H 90.432 29.678 93.869 H 0.0 **** 0.0
5299 H 90.758 28.049 94.508 H 0.0 **** 0.0
5300 H 91.839 29.4 94.924 H 0.0 **** 0.0
5301 C 51.169 80.045 15.078 C 0.0 **** 0.0
5302 H 51.66 80.667 15.827 H 0.0 **** 0.0
5303 H 50.25 79.632 15.495 H 0.0 **** 0.0
5304 H 51.835 79.231 14.789 H 0.0 **** 0.0
5305 H 50.933 80.649 14.202 H 0.0 **** 0.0
5306 C 3.32 54.318 45.471 C 0.0 **** 0.0
5307 H 2.378 54.794 45.2 H 0.0 **** 0.0
5308 H 3.592 53.59 44.707 H 0.0 **** 0.0
5309 H 3.207 53.812 46.431 H 0.0 **** 0.0
5310 H 4.1 55.074 45.549 H 0.0 **** 0.0
5311 C 88.352 9.648 12.673 C 0.0 **** 0.0
5312 H 87.544 10.336 12.423 H 0.0 **** 0.0
5313 H 87.965 8.629 12.7 H 0.0 **** 0.0
5314 H 88.762 9.908 13.649 H 0.0 **** 0.0
5315 H 89.136 9.72 11.919 H 0.0 **** 0.0
5316 C 10.902 16.132 87.824 C 0.0 **** 0.0
5317 H 10.475 16.682 88.663 H 0.0 **** 0.0
5318 H 10.103 15.821 87.15 H 0.0 **** 0.0
5319 H 11.427 15.252 88.196 H 0.0 **** 0.0
5320 H 11.601 16.773 87.287 H 0.0 **** 0.0
5321 C 13.389 75.299 71.031 C 0.0 **** 0.0
5322 H 12.47 75.831 70.782 H 0.0 **** 0.0
5323 H 13.151 74.433 71.65 H 0.0 **** 0.0
5324 H 14.057 75.964 71.578 H 0.0 **** 0.0
5325 H 13.876 74.967 70.115 H 0.0 **** 0.0
5326 C 18.687 36.039 32.898 C 0.0 **** 0.0
5327 H 18.705 35.011 32.535 H 0.0 **** 0.0
5328 H 19.494 36.603 32.431 H 0.0 **** 0.0
5329 H 18.819 36.044 33.98 H 0.0 **** 0.0
5330 H 17.73 36.496 32.647 H 0.0 **** 0.0
5331 C 34.012 51.604 1.164 C 0.0 **** 0.0
5332 H 34.003 51.593 2.254 H 0.0 **** 0.0
5333 H 34.409 52.558 0.814 H 0.0 **** 0.0
5334 H 32.996 51.474 0.791 H 0.0 **** 0.0
5335 H 34.641 50.793 0.797 H 0.0 **** 0.0
5336 C 37.322 47.614 58.839 C 0.0 **** 0.0
5337 H 36.348 47.134 58.738 H 0.0 **** 0.0
5338 H 38.098 46.941 58.473 H 0.0 **** 0.0
5339 H 37.506 47.845 59.888 H 0.0 **** 0.0
5340 H 37.335 48.535 58.256 H 0.0 **** 0.0
5341 C 46.039 41.627 42.525 C 0.0 **** 0.0
5342 H 47.05 41.312 42.265 H 0.0 **** 0.0
5343 H 45.671 41.019 43.352 H 0.0 **** 0.0
5344 H 45.386 41.501 41.662 H 0.0 **** 0.0
5345 H 46.051 42.676 42.822 H 0.0 **** 0.0
5346 C 5.743 42.009 92.977 C 0.0 **** 0.0
5347 H 5.589 41.048 92.486 H 0.0 **** 0.0
5348 H 6.214 42.702 92.28 H 0.0 **** 0.0
5349 H 6.386 41.874 93.846 H 0.0 **** 0.0
5350 H 4.781 42.411 93.296 H 0.0 **** 0.0
5351 C 47.936 62.985 58.739 C 0.0 **** 0.0
5352 H 48.584 62.254 59.221 H 0.0 **** 0.0
5353 H 48.428 63.959 58.734 H 0.0 **** 0.0
5354 H 46.996 63.055 59.286 H 0.0 **** 0.0
5355 H 47.737 62.673 57.713 H 0.0 **** 0.0
5356 C 33.199 37.297 89.704 C 0.0 **** 0.0
5357 H 33.139 37.078 88.638 H 0.0 **** 0.0
5358 H 32.237 37.091 90.172 H 0.0 **** 0.0
5359 H 33.455 38.347 89.845 H 0.0 **** 0.0
5360 H 33.967 36.671 90.16 H 0.0 **** 0.0
5361 C 17.453 6.559 80.902 C 0.0 **** 0.0
5362 H 16.709 7.127 81.462 H 0.0 **** 0.0
5363 H 17.816 7.16 80.068 H 0.0 **** 0.0
5364 H 17.0 5.644 80.522 H 0.0 **** 0.0
5365 H 18.286 6.307 81.559 H 0.0 **** 0.0
5366 C 81.049 9.287 90.429 C 0.0 **** 0.0
5367 H 80.379 8.585 90.926 H 0.0 **** 0.0
5368 H 81.881 9.525 91.092 H 0.0 **** 0.0
5369 H 80.504 10.199 90.187 H 0.0 **** 0.0
5370 H 81.43 8.837 89.512 H 0.0 **** 0.0
5371 C 6.904 22.749 64.929 C 0.0 **** 0.0
5372 H 7.833 23.18 64.555 H 0.0 **** 0.0
5373 H 6.077 23.425 64.71 H 0.0 **** 0.0
5374 H 6.979 22.602 66.006 H 0.0 **** 0.0
5375 H 6.728 21.789 64.443 H 0.0 **** 0.0
5376 C 68.761 46.898 39.363 C 0.0 **** 0.0
5377 H 68.204 46.787 40.294 H 0.0 **** 0.0
5378 H 68.694 45.975 38.788 H 0.0 **** 0.0
5379 H 69.806 47.112 39.589 H 0.0 **** 0.0
5380 H 68.339 47.719 38.784 H 0.0 **** 0.0
5381 C 50.316 3.146 35.205 C 0.0 **** 0.0
5382 H 50.307 3.885 36.007 H 0.0 **** 0.0
5383 H 50.286 3.655 34.242 H 0.0 **** 0.0
5384 H 49.446 2.496 35.301 H 0.0 **** 0.0
5385 H 51.225 2.548 35.273 H 0.0 **** 0.0
5386 C 75.378 89.773 55.922 C 0.0 **** 0.0
5387 H 75.443 89.655 57.003 H 0.0 **** 0.0
5388 H 75.992 90.619 55.611 H 0.0 **** 0.0
5389 H 74.342 89.952 55.637 H 0.0 **** 0.0
5390 H 75.737 88.866 55.436 H 0.0 **** 0.0
5391 C 22.373 51.686 93.268 C 0.0 **** 0.0
5392 H 21.985 51.914 92.275 H 0.0 **** 0.0
5393 H 22.959 52.531 93.631 H 0.0 **** 0.0
5394 H 23.006 50.8 93.215 H 0.0 **** 0.0
5395 H 21.543 51.499 93.948 H 0.0 **** 0.0
5396 C 74.037 83.861 1.337 C 0.0 **** 0.0
5397 H 73.706 84.099 0.326 H 0.0 **** 0.0
5398 H 73.879 82.8 1.53 H 0.0 **** 0.0
5399 H 73.464 84.45 2.054 H 0.0 **** 0.0
5400 H 75.096 84.096 1.437 H 0.0 **** 0.0
5401 C 4.528 55.888 65.156 C 0.0 **** 0.0
5402 H 5.086 54.969 64.978 H 0.0 **** 0.0
5403 H 4.295 55.971 66.218 H 0.0 **** 0.0
5404 H 3.603 55.868 64.581 H 0.0 **** 0.0
5405 H 5.13 56.743 64.848 H 0.0 **** 0.0
5406 C 24.018 47.806 3.048 C 0.0 **** 0.0
5407 H 24.146 47.608 4.112 H 0.0 **** 0.0
5408 H 24.863 47.391 2.498 H 0.0 **** 0.0
5409 H 23.969 48.882 2.883 H 0.0 **** 0.0
5410 H 23.095 47.342 2.7 H 0.0 **** 0.0
5411 C 87.796 55.217 88.031 C 0.0 **** 0.0
5412 H 88.803 55.265 88.446 H 0.0 **** 0.0
5413 H 87.584 54.197 87.711 H 0.0 **** 0.0
5414 H 87.724 55.889 87.175 H 0.0 **** 0.0
5415 H 87.075 55.518 88.791 H 0.0 **** 0.0
5416 C 72.893 3.618 45.577 C 0.0 **** 0.0
5417 H 73.745 3.274 44.991 H 0.0 **** 0.0
5418 H 73.201 3.768 46.612 H 0.0 **** 0.0
5419 H 72.1 2.871 45.538 H 0.0 **** 0.0
5420 H 72.527 4.559 45.167 H 0.0 **** 0.0
5421 C 49.252 11.434 86.021 C 0.0 **** 0.0
5422 H 48.987 10.829 85.154 H 0.0 **** 0.0
5423 H 50.212 11.919 85.845 H 0.0 **** 0.0
5424 H 49.322 10.796 86.902 H 0.0 **** 0.0
5425 H 48.485 12.192 86.182 H 0.0 **** 0.0
5426 C 15.823 48.405 59.324 C 0.0 **** 0.0
5427 H 14.965 49.04 59.545 H 0.0 **** 0.0
5428 H 15.644 47.866 58.393 H 0.0 **** 0.0
5429 H 15.966 47.692 60.135 H 0.0 **** 0.0
5430 H 16.715 49.022 59.221 H 0.0 **** 0.0
5431 C 48.377 65.713 75.356 C 0.0 **** 0.0
5432 H 49.275 66.042 74.833 H 0.0 **** 0.0
5433 H 48.326 64.624 75.338 H 0.0 **** 0.0
5434 H 47.497 66.126 74.862 H 0.0 **** 0.0
5435 H 48.41 66.06 76.388 H 0.0 **** 0.0
5436 C 80.4 7.191 57.242 C 0.0 **** 0.0
5437 H 79.623 7.365 56.497 H 0.0 **** 0.0
5438 H 80.466 8.053 57.906 H 0.0 **** 0.0
5439 H 81.356 7.045 56.74 H 0.0 **** 0.0
5440 H 80.154 6.303 57.823 H 0.0 **** 0.0
5441 C 57.65 3.153 47.313 C 0.0 **** 0.0
5442 H 57.356 2.217 46.838 H 0.0 **** 0.0
5443 H 58.152 2.938 48.257 H 0.0 **** 0.0
5444 H 56.764 3.759 47.502 H 0.0 **** 0.0
5445 H 58.329 3.696 46.656 H 0.0 **** 0.0
5446 C 63.649 28.047 53.902 C 0.0 **** 0.0
5447 H 63.717 29.006 53.388 H 0.0 **** 0.0
5448 H 64.419 27.376 53.52 H 0.0 **** 0.0
5449 H 62.666 27.61 53.727 H 0.0 **** 0.0
5450 H 63.795 28.198 54.971 H 0.0 **** 0.0
5451 C 44.328 31.237 34.387 C 0.0 **** 0.0
5452 H 44.861 32.18 34.261 H 0.0 **** 0.0
5453 H 44.928 30.423 33.98 H 0.0 **** 0.0
5454 H 43.375 31.286 33.86 H 0.0 **** 0.0
5455 H 44.149 31.061 35.448 H 0.0 **** 0.0
5456 C 25.887 29.45 59.769 C 0.0 **** 0.0
5457 H 25.319 30.194 59.212 H 0.0 **** 0.0
5458 H 25.453 28.463 59.604 H 0.0 **** 0.0
5459 H 25.853 29.688 60.832 H 0.0 **** 0.0
5460 H 26.923 29.453 59.429 H 0.0 **** 0.0
5461 C 23.694 94.699 25.049 C 0.0 **** 0.0
5462 H 23.74 94.483 23.981 H 0.0 **** 0.0
5463 H 24.682 94.998 25.401 H 0.0 **** 0.0
5464 H 23.37 93.809 25.586 H 0.0 **** 0.0
5465 H 22.986 95.509 25.225 H 0.0 **** 0.0
5466 C 14.788 79.68 3.772 C 0.0 **** 0.0
5467 H 15.088 80.38 4.551 H 0.0 **** 0.0
5468 H 13.76 79.887 3.473 H 0.0 **** 0.0
5469 H 14.858 78.661 4.153 H 0.0 **** 0.0
5470 H 15.447 79.792 2.91 H 0.0 **** 0.0
5471 C 17.948 70.132 31.762 C 0.0 **** 0.0
5472 H 17.955 70.108 30.673 H 0.0 **** 0.0
5473 H 18.763 70.764 32.116 H 0.0 **** 0.0
5474 H 18.079 69.121 32.148 H 0.0 **** 0.0
5475 H 16.997 70.534 32.111 H 0.0 **** 0.0
5476 C 63.843 3.524 98.04 C 0.0 **** 0.0
5477 H 63.18 3.518 97.175 H 0.0 **** 0.0
5478 H 64.504 2.658 97.997 H 0.0 **** 0.0
5479 H 63.248 3.482 98.953 H 0.0 **** 0.0
5480 H 64.438 4.437 98.036 H 0.0 **** 0.0
5481 C 13.778 91.052 9.627 C 0.0 **** 0.0
5482 H 13.71 90.84 10.694 H 0.0 **** 0.0
5483 H 12.815 90.856 9.156 H 0.0 **** 0.0
5484 H 14.54 90.415 9.177 H 0.0 **** 0.0
5485 H 14.047 92.099 9.481 H 0.0 **** 0.0
5486 C 35.209 50.426 33.753 C 0.0 **** 0.0
5487 H 34.981 49.923 34.693 H 0.0 **** 0.0
5488 H 34.281 50.654 33.229 H 0.0 **** 0.0
5489 H 35.827 49.775 33.135 H 0.0 **** 0.0
5490 H 35.748 51.351 33.958 H 0.0 **** 0.0
5491 C 91.507 51.828 52.925 C 0.0 **** 0.0
5492 H 92.514 51.411 52.902 H 0.0 **** 0.0
5493 H 90.833 51.177 52.367 H 0.0 **** 0.0
5494 H 91.514 52.818 52.471 H 0.0 **** 0.0
5495 H 91.168 51.903 53.958 H 0.0 **** 0.0
5496 C 80.731 67.687 98.047 C 0.0 **** 0.0
5497 H 81.812 67.574 98.137 H 0.0 **** 0.0
5498 H 80.506 68.426 97.278 H 0.0 **** 0.0
5499 H 80.32 68.018 99.001 H 0.0 **** 0.0
5500 H 80.288 66.73 97.773 H 0.0 **** 0.0
5501 C 67.238 50.365 25.142 C 0.0 **** 0.0
5502 H 67.195 50.686 24.101 H 0.0 **** 0.0
5503 H 66.351 49.776 25.377 H 0.0 **** 0.0
5504 H 67.275 51.241 25.79 H 0.0 **** 0.0
5505 H 68.13 49.759 25.298 H 0.0 **** 0.0
5506 C 41.992 24.709 91.402 C 0.0 **** 0.0
5507 H 41.31 24.403 90.608 H 0.0 **** 0.0
5508 H 42.246 23.846 92.016 H 0.0 **** 0.0
5509 H 41.511 25.467 92.02 H 0.0 **** 0.0
5510 H 42.9 25.122 90.961 H 0.0 **** 0.0
5511 C 90.169 52.675 64.793 C 0.0 **** 0.0
5512 H 90.243 53.744 64.59 H 0.0 **** 0.0
5513 H 89.329 52.257 64.239 H 0.0 **** 0.0
5514 H 90.015 52.519 65.861 H 0.0 **** 0.0
5515 H 91.091 52.182 64.483 H 0.0 **** 0.0
5516 C 1.551 43.263 12.189 C 0.0 **** 0.0
5517 H 1.568 42.582 11.338 H 0.0 **** 0.0
5518 H 0.642 43.097 12.768 H 0.0 **** 0.0
5519 H 1.571 44.292 11.831 H 0.0 **** 0.0
5520 H 2.421 43.079 12.818 H 0.0 **** 0.0
5521 C 84.077 14.437 53.278 C 0.0 **** 0.0
5522 H 84.73 14.105 52.47 H 0.0 **** 0.0
5523 H 84.505 14.138 54.235 H 0.0 **** 0.0
5524 H 83.094 13.981 53.16 H 0.0 **** 0.0
5525 H 83.982 15.522 53.245 H 0.0 **** 0.0
5526 C 36.309 37.032 9.636 C 0.0 **** 0.0
5527 H 35.844 37.964 9.956 H 0.0 **** 0.0
5528 H 36.026 36.82 8.605 H 0.0 **** 0.0
5529 H 35.973 36.219 10.28 H 0.0 **** 0.0
5530 H 37.393 37.124 9.704 H 0.0 **** 0.0
5531 C 20.666 80.828 32.429 C 0.0 **** 0.0
5532 H 20.583 80.641 33.499 H 0.0 **** 0.0
5533 H 19.684 80.735 31.966 H 0.0 **** 0.0
5534 H 21.347 80.102 31.985 H 0.0 **** 0.0
5535 H 21.052 81.835 32.265 H 0.0 **** 0.0
5536 C 53.833 22.593 85.433 C 0.0 **** 0.0
5537 H 52.973 21.923 85.426 H 0.0 **** 0.0
5538 H 53.987 22.995 84.431 H 0.0 **** 0.0
5539 H 54.72 22.043 85.745 H 0.0 **** 0.0
5540 H 53.649 23.412 86.129 H 0.0 **** 0.0
5541 C 53.757 36.325 66.418 C 0.0 **** 0.0
5542 H 54.06 37.289 66.008 H 0.0 **** 0.0
5543 H 53.438 35.67 65.607 H 0.0 **** 0.0
5544 H 52.931 36.471 67.114 H 0.0 **** 0.0
5545 H 54.598 35.873 66.942 H 0.0 **** 0.0
5546 C 38.717 13.832 26.348 C 0.0 **** 0.0
5547 H 38.25 14.41 25.55 H 0.0 **** 0.0
5548 H 39.2 12.952 25.923 H 0.0 **** 0.0
5549 H 37.956 13.52 27.063 H 0.0 **** 0.0
5550 H 39.461 14.447 26.854 H 0.0 **** 0.0
5551 C 79.744 14.66 98.036 C 0.0 **** 0.0
5552 H 79.553 14.191 99.001 H 0.0 **** 0.0
5553 H 79.063 14.248 97.291 H 0.0 **** 0.0
5554 H 80.774 14.465 97.736 H 0.0 **** 0.0
5555 H 79.586 15.735 98.117 H 0.0 **** 0.0
5556 C 82.26 29.233 93.715 C 0.0 **** 0.0
5557 H 82.553 30.111 93.139 H 0.0 **** 0.0
5558 H 82.964 28.422 93.523 H 0.0 **** 0.0
5559 H 81.258 28.922 93.419 H 0.0 **** 0.0
5560 H 82.266 29.476 94.777 H 0.0 **** 0.0
5561 C 27.634 97.782 68.495 C 0.0 **** 0.0
5562 H 26.846 97.032 68.564 H 0.0 **** 0.0
5563 H 28.184 97.647 67.563 H 0.0 **** 0.0
5564 H 28.315 97.671 69.339 H 0.0 **** 0.0
5565 H 27.19 98.778 68.515 H 0.0 **** 0.0
5566 C 52.316 75.969 64.883 C 0.0 **** 0.0
5567 H 52.199 75.692 63.835 H 0.0 **** 0.0
5568 H 53.244 75.547 65.268 H 0.0 **** 0.0
5569 H 51.474 75.58 65.456 H 0.0 **** 0.0
5570 H 52.346 77.055 64.971 H 0.0 **** 0.0
5571 C 51.811 9.265 57.288 C 0.0 **** 0.0
5572 H 51.568 8.551 56.502 H 0.0 **** 0.0
5573 H 52.809 9.668 57.117 H 0.0 **** 0.0
5574 H 51.782 8.764 58.256 H 0.0 **** 0.0
5575 H 51.084 10.077 57.278 H 0.0 **** 0.0
5576 C 78.63 45.102 80.24 C 0.0 **** 0.0
5577 H 79.017 44.444 79.463 H 0.0 **** 0.0
5578 H 79.459 45.606 80.736 H 0.0 **** 0.0
5579 H 78.073 44.514 80.969 H 0.0 **** 0.0
5580 H 77.969 45.844 79.791 H 0.0 **** 0.0
5581 C 92.358 40.614 4.852 C 0.0 **** 0.0
5582 H 92.923 41.095 5.65 H 0.0 **** 0.0
5583 H 92.254 39.551 5.071 H 0.0 **** 0.0
5584 H 92.885 40.741 3.906 H 0.0 **** 0.0
5585 H 91.37 41.069 4.781 H 0.0 **** 0.0
5586 C 36.996 10.23 52.828 C 0.0 **** 0.0
5587 H 37.319 10.339 51.792 H 0.0 **** 0.0
5588 H 37.227 11.142 53.378 H 0.0 **** 0.0
5589 H 37.517 9.388 53.283 H 0.0 **** 0.0
5590 H 35.921 10.051 52.856 H 0.0 **** 0.0
5591 C 3.453 21.086 1.458 C 0.0 **** 0.0
5592 H 2.44 21.158 1.854 H 0.0 **** 0.0
5593 H 4.154 21.511 2.176 H 0.0 **** 0.0
5594 H 3.515 21.635 0.519 H 0.0 **** 0.0
5595 H 3.7 20.039 1.284 H 0.0 **** 0.0
5596 C 71.972 78.327 40.57 C 0.0 **** 0.0
5597 H 72.427 78.875 41.395 H 0.0 **** 0.0
5598 H 70.889 78.444 40.61 H 0.0 **** 0.0
5599 H 72.228 77.271 40.651 H 0.0 **** 0.0
5600 H 72.346 78.72 39.624 H 0.0 **** 0.0
5601 C 71.874 67.351 14.55 C 0.0 **** 0.0
5602 H 71.776 66.298 14.812 H 0.0 **** 0.0
5603 H 72.193 67.439 13.511 H 0.0 **** 0.0
5604 H 72.615 67.819 15.198 H 0.0 **** 0.0
5605 H 70.913 67.849 14.679 H 0.0 **** 0.0
5606 C 72.853 64.463 33.986 C 0.0 **** 0.0
5607 H 72.256 64.798 34.834 H 0.0 **** 0.0
5608 H 72.224 64.415 33.096 H 0.0 **** 0.0
5609 H 73.261 63.474 34.196 H 0.0 **** 0.0
5610 H 73.67 65.164 33.817 H 0.0 **** 0.0
5611 C 88.31 79.119 8.272 C 0.0 **** 0.0
5612 H 88.313 79.072 9.361 H 0.0 **** 0.0
5613 H 89.089 78.465 7.879 H 0.0 **** 0.0
5614 H 88.499 80.143 7.952 H 0.0 **** 0.0
5615 H 87.339 78.794 7.898 H 0.0 **** 0.0
5616 C 64.082 97.562 59.709 C 0.0 **** 0.0
5617 H 64.139 98.224 60.574 H 0.0 **** 0.0
5618 H 63.446 98.014 58.948 H 0.0 **** 0.0
5619 H 63.662 96.603 60.012 H 0.0 **** 0.0
5620 H 65.082 97.409 59.304 H 0.0 **** 0.0
5621 C 53.153 39.393 67.814 C 0.0 **** 0.0
5622 H 52.366 39.708 68.498 H 0.0 **** 0.0
5623 H 53.872 40.203 67.691 H 0.0 **** 0.0
5624 H 52.716 39.145 66.847 H 0.0 **** 0.0
5625 H 53.658 38.517 68.22 H 0.0 **** 0.0
5626 C 40.456 52.144 56.162 C 0.0 **** 0.0
5627 H 41.32 51.742 56.69 H 0.0 **** 0.0
5628 H 39.663 51.396 56.139 H 0.0 **** 0.0
5629 H 40.741 52.402 55.142 H 0.0 **** 0.0
5630 H 40.099 53.036 56.676 H 0.0 **** 0.0
5631 C 33.245 46.885 2.405 C 0.0 **** 0.0
5632 H 33.353 46.85 3.489 H 0.0 **** 0.0
5633 H 32.222 47.164 2.151 H 0.0 **** 0.0
5634 H 33.469 45.904 1.987 H 0.0 **** 0.0
5635 H 33.936 47.621 1.995 H 0.0 **** 0.0
5636 C 35.66 89.439 8.785 C 0.0 **** 0.0
5637 H 35.534 88.7 9.576 H 0.0 **** 0.0
5638 H 35.263 90.399 9.118 H 0.0 **** 0.0
5639 H 35.124 89.113 7.894 H 0.0 **** 0.0
5640 H 36.72 89.545 8.553 H 0.0 **** 0.0
5641 C 70.88 47.683 73.479 C 0.0 **** 0.0
5642 H 70.862 47.642 72.39 H 0.0 **** 0.0
5643 H 70.035 47.121 73.877 H 0.0 **** 0.0
5644 H 70.812 48.721 73.804 H 0.0 **** 0.0
5645 H 71.81 47.248 73.843 H 0.0 **** 0.0
5646 C 34.375 26.252 98.191 C 0.0 **** 0.0
5647 H 34.19 25.377 98.815 H 0.0 **** 0.0
5648 H 33.424 26.68 97.875 H 0.0 **** 0.0
5649 H 34.951 25.957 97.314 H 0.0 **** 0.0
5650 H 34.936 26.992 98.762 H 0.0 **** 0.0
5651 C 56.591 48.668 50.496 C 0.0 **** 0.0
5652 H 56.395 47.683 50.92 H 0.0 **** 0.0
5653 H 57.667 48.824 50.422 H 0.0 **** 0.0
5654 H 56.156 49.433 51.138 H 0.0 **** 0.0
5655 H 56.145 48.731 49.503 H 0.0 **** 0.0
5656 C 46.417 55.531 91.891 C 0.0 **** 0.0
5657 H 46.465 54.983 90.951 H 0.0 **** 0.0
5658 H 47.427 55.73 92.248 H 0.0 **** 0.0
5659 H 45.881 54.936 92.631 H 0.0 **** 0.0
5660 H 45.893 56.474 91.735 H 0.0 **** 0.0
5661 C 89.966 29.293 35.532 C 0.0 **** 0.0
5662 H 90.008 29.302 34.442 H 0.0 **** 0.0
5663 H 90.93 29.606 35.934 H 0.0 **** 0.0
5664 H 89.738 28.285 35.878 H 0.0 **** 0.0
5665 H 89.19 29.978 35.871 H 0.0 **** 0.0
5666 C 88.993 87.866 26.041 C 0.0 **** 0.0
5667 H 88.688 88.91 25.967 H 0.0 **** 0.0
5668 H 88.51 87.29 25.252 H 0.0 **** 0.0
5669 H 88.698 87.47 27.013 H 0.0 **** 0.0
5670 H 90.075 87.795 25.933 H 0.0 **** 0.0
5671 C 70.142 2.561 59.538 C 0.0 **** 0.0
5672 H 69.723 2.949 58.609 H 0.0 **** 0.0
5673 H 71.012 3.156 59.819 H 0.0 **** 0.0
5674 H 70.442 1.523 59.396 H 0.0 **** 0.0
5675 H 69.392 2.619 60.326 H 0.0 **** 0.0
5676 C 4.764 45.376 87.694 C 0.0 **** 0.0
5677 H 4.347 46.179 87.086 H 0.0 **** 0.0
5678 H 4.773 44.451 87.117 H 0.0 **** 0.0
5679 H 4.152 45.242 88.586 H 0.0 **** 0.0
5680 H 5.782 45.633 87.986 H 0.0 **** 0.0
5681 C 67.856 32.73 23.721 C 0.0 **** 0.0
5682 H 67.802 32.887 24.799 H 0.0 **** 0.0
5683 H 67.49 33.619 23.207 H 0.0 **** 0.0
5684 H 67.241 31.872 23.448 H 0.0 **** 0.0
5685 H 68.89 32.542 23.433 H 0.0 **** 0.0
5686 C 15.826 36.803 77.575 C 0.0 **** 0.0
5687 H 15.688 36.526 78.62 H 0.0 **** 0.0
5688 H 15.578 35.954 76.938 H 0.0 **** 0.0
5689 H 16.864 37.092 77.409 H 0.0 **** 0.0
5690 H 15.172 37.642 77.333 H 0.0 **** 0.0
5691 C 14.307 74.707 74.256 C 0.0 **** 0.0
5692 H 14.972 74.237 73.531 H 0.0 **** 0.0
5693 H 14.837 75.512 74.765 H 0.0 **** 0.0
5694 H 13.984 73.965 74.986 H 0.0 **** 0.0
5695 H 13.437 75.113 73.741 H 0.0 **** 0.0
5696 C 10.43 38.512 30.166 C 0.0 **** 0.0
5697 H 9.828 38.973 30.949 H 0.0 **** 0.0
5698 H 10.204 38.983 29.21 H 0.0 **** 0.0
5699 H 10.201 37.448 30.111 H 0.0 **** 0.0
5700 H 11.487 38.645 30.396 H 0.0 **** 0.0
5701 C 28.609 4.596 74.707 C 0.0 **** 0.0
5702 H 28.831 4.844 75.745 H 0.0 **** 0.0
5703 H 28.391 3.53 74.627 H 0.0 **** 0.0
5704 H 29.469 4.839 74.084 H 0.0 **** 0.0
5705 H 27.744 5.17 74.374 H 0.0 **** 0.0
5706 C 54.684 73.419 34.008 C 0.0 **** 0.0
5707 H 54.663 72.855 34.94 H 0.0 **** 0.0
5708 H 53.672 73.497 33.608 H 0.0 **** 0.0
5709 H 55.321 72.907 33.287 H 0.0 **** 0.0
5710 H 55.078 74.418 34.196 H 0.0 **** 0.0
5711 C 11.528 24.888 5.769 C 0.0 **** 0.0
5712 H 11.989 25.449 4.956 H 0.0 **** 0.0
5713 H 10.66 24.348 5.39 H 0.0 **** 0.0
5714 H 11.213 25.578 6.553 H 0.0 **** 0.0
5715 H 12.248 24.179 6.176 H 0.0 **** 0.0
5716 C 61.858 31.835 59.519 C 0.0 **** 0.0
5717 H 62.026 31.509 60.545 H 0.0 **** 0.0
5718 H 61.162 31.152 59.031 H 0.0 **** 0.0
5719 H 62.805 31.836 58.979 H 0.0 **** 0.0
5720 H 61.439 32.841 59.522 H 0.0 **** 0.0
5721 C 52.059 6.148 78.072 C 0.0 **** 0.0
5722 H 51.582 6.489 77.153 H 0.0 **** 0.0
5723 H 53.071 6.55 78.127 H 0.0 **** 0.0
5724 H 52.1 5.059 78.077 H 0.0 **** 0.0
5725 H 51.483 6.494 78.93 H 0.0 **** 0.0
5726 C 54.844 57.132 70.294 C 0.0 **** 0.0
5727 H 55.175 57.068 69.257 H 0.0 **** 0.0
5728 H 53.902 57.679 70.341 H 0.0 **** 0.0
5729 H 55.598 57.655 70.883 H 0.0 **** 0.0
5730 H 54.703 56.128 70.692 H 0.0 **** 0.0
5731 C 74.497 27.762 28.512 C 0.0 **** 0.0
5732 H 74.936 28.409 27.753 H 0.0 **** 0.0
5733 H 74.371 28.323 29.438 H 0.0 **** 0.0
5734 H 75.155 26.911 28.689 H 0.0 **** 0.0
5735 H 73.527 27.405 28.168 H 0.0 **** 0.0
5736 C 69.155 47.521 4.405 C 0.0 **** 0.0
5737 H 69.077 47.727 3.338 H 0.0 **** 0.0
5738 H 69.001 46.456 4.582 H 0.0 **** 0.0
5739 H 68.397 48.092 4.941 H 0.0 **** 0.0
5740 H 70.145 47.809 4.759 H 0.0 **** 0.0
5741 C 92.219 89.078 71.326 C 0.0 **** 0.0
5742 H 91.674 88.718 72.199 H 0.0 **** 0.0
5743 H 91.523 89.231 70.501 H 0.0 **** 0.0
5744 H 92.969 88.342 71.038 H 0.0 **** 0.0
5745 H 92.709 90.021 71.569 H 0.0 **** 0.0
5746 C 36.664 69.726 80.433 C 0.0 **** 0.0
5747 H 36.192 70.359 79.681 H 0.0 **** 0.0
5748 H 37.598 69.326 80.036 H 0.0 **** 0.0
5749 H 35.995 68.903 80.686 H 0.0 **** 0.0
5750 H 36.87 70.315 81.326 H 0.0 **** 0.0
5751 C 94.657 54.468 38.95 C 0.0 **** 0.0
5752 H 95.135 53.947 38.12 H 0.0 **** 0.0
5753 H 95.067 54.102 39.892 H 0.0 **** 0.0
5754 H 93.583 54.284 38.925 H 0.0 **** 0.0
5755 H 94.845 55.538 38.863 H 0.0 **** 0.0
5756 C 64.491 71.465 66.6 C 0.0 **** 0.0
5757 H 65.172 70.658 66.87 H 0.0 **** 0.0
5758 H 63.811 71.659 67.43 H 0.0 **** 0.0
5759 H 63.917 71.177 65.72 H 0.0 **** 0.0
5760 H 65.064 72.366 66.382 H 0.0 **** 0.0
5761 C 16.151 46.628 5.869 C 0.0 **** 0.0
5762 H 15.606 46.483 4.936 H 0.0 **** 0.0
5763 H 16.029 45.748 6.501 H 0.0 **** 0.0
5764 H 15.759 47.504 6.385 H 0.0 **** 0.0
5765 H 17.209 46.777 5.652 H 0.0 **** 0.0
5766 C 3.78 36.173 1.745 C 0.0 **** 0.0
5767 H 3.698 37.259 1.783 H 0.0 **** 0.0
5768 H 3.407 35.748 2.677 H 0.0 **** 0.0
5769 H 4.825 35.892 1.61 H 0.0 **** 0.0
5770 H 3.191 35.793 0.911 H 0.0 **** 0.0
5771 C 74.085 2.132 78.002 C 0.0 **** 0.0
5772 H 73.245 2.35 78.662 H 0.0 **** 0.0
5773 H 74.945 2.733 78.298 H 0.0 **** 0.0
5774 H 73.811 2.371 76.975 H 0.0 **** 0.0
5775 H 74.339 1.074 78.074 H 0.0 **** 0.0
5776 C 82.476 47.767 43.718 C 0.0 **** 0.0
5777 H 83.503 47.599 44.043 H 0.0 **** 0.0
5778 H 81.823 47.027 44.181 H 0.0 **** 0.0
5779 H 82.419 47.675 42.633 H 0.0 **** 0.0
5780 H 82.16 48.767 44.015 H 0.0 **** 0.0
5781 C 63.321 6.243 1.391 C 0.0 **** 0.0
5782 H 63.702 7.243 1.185 H 0.0 **** 0.0
5783 H 64.027 5.71 2.028 H 0.0 **** 0.0
5784 H 63.198 5.702 0.453 H 0.0 **** 0.0
5785 H 62.359 6.318 1.897 H 0.0 **** 0.0
5786 C 8.934 33.024 98.163 C 0.0 **** 0.0
5787 H 8.723 33.622 97.277 H 0.0 **** 0.0
5788 H 9.165 33.683 99.0 H 0.0 **** 0.0
5789 H 9.786 32.373 97.967 H 0.0 **** 0.0
5790 H 8.062 32.417 98.408 H 0.0 **** 0.0
5791 C 15.233 15.503 63.486 C 0.0 **** 0.0
5792 H 15.606 15.509 64.51 H 0.0 **** 0.0
5793 H 14.159 15.686 63.49 H 0.0 **** 0.0
5794 H 15.435 14.532 63.032 H 0.0 **** 0.0
5795 H 15.734 16.283 62.913 H 0.0 **** 0.0
5796 C 74.185 9.844 90.303 C 0.0 **** 0.0
5797 H 73.749 10.103 91.268 H 0.0 **** 0.0
5798 H 75.016 10.516 90.087 H 0.0 **** 0.0
5799 H 73.427 9.94 89.526 H 0.0 **** 0.0
5800 H 74.547 8.816 90.333 H 0.0 **** 0.0
5801 C 5.582 12.744 44.519 C 0.0 **** 0.0
5802 H 5.591 13.427 45.368 H 0.0 **** 0.0
5803 H 5.959 11.77 44.833 H 0.0 **** 0.0
5804 H 6.215 13.141 43.726 H 0.0 **** 0.0
5805 H 4.561 12.637 44.151 H 0.0 **** 0.0
5806 C 82.182 63.938 26.368 C 0.0 **** 0.0
5807 H 82.102 63.876 27.454 H 0.0 **** 0.0
5808 H 81.743 63.046 25.921 H 0.0 **** 0.0
5809 H 83.233 64.007 26.086 H 0.0 **** 0.0
5810 H 81.652 64.822 26.015 H 0.0 **** 0.0
5811 C 37.14 6.942 19.761 C 0.0 **** 0.0
5812 H 36.876 6.697 20.79 H 0.0 **** 0.0
5813 H 38.225 6.967 19.66 H 0.0 **** 0.0
5814 H 36.728 7.918 19.504 H 0.0 **** 0.0
5815 H 36.729 6.186 19.092 H 0.0 **** 0.0
5816 C 66.048 96.661 92.331 C 0.0 **** 0.0
5817 H 65.965 96.31 91.302 H 0.0 **** 0.0
5818 H 65.301 97.435 92.511 H 0.0 **** 0.0
5819 H 67.044 97.072 92.495 H 0.0 **** 0.0
5820 H 65.881 95.828 93.014 H 0.0 **** 0.0
5821 C 18.82 26.867 52.318 C 0.0 **** 0.0
5822 H 19.197 27.829 52.665 H 0.0 **** 0.0
5823 H 19.642 26.153 52.263 H 0.0 **** 0.0
5824 H 18.376 26.987 51.33 H 0.0 **** 0.0
5825 H 18.065 26.501 53.014 H 0.0 **** 0.0
5826 C 59.183 86.319 52.746 C 0.0 **** 0.0
5827 H 59.137 85.674 53.623 H 0.0 **** 0.0
5828 H 58.27 86.201 52.16 H 0.0 **** 0.0
5829 H 60.044 86.043 52.137 H 0.0 **** 0.0
5830 H 59.28 87.357 53.063 H 0.0 **** 0.0
5831 C 67.234 38.345 77.505 C 0.0 **** 0.0
5832 H 67.833 37.591 78.016 H 0.0 **** 0.0
5833 H 66.223 38.344 77.915 H 0.0 **** 0.0
5834 H 67.194 38.117 76.44 H 0.0 **** 0.0
5835 H 67.684 39.326 77.65 H 0.0 **** 0.0
5836 C 8.048 41.68 25.283 C 0.0 **** 0.0
5837 H 8.967 42.235 25.471 H 0.0 **** 0.0
5838 H 7.453 42.205 24.534 H 0.0 **** 0.0
5839 H 7.477 41.598 26.208 H 0.0 **** 0.0
5840 H 8.294 40.683 24.918 H 0.0 **** 0.0
5841 C 95.01 68.108 46.766 C 0.0 **** 0.0
5842 H 94.132 68.619 46.372 H 0.0 **** 0.0
5843 H 95.11 67.134 46.286 H 0.0 **** 0.0
5844 H 94.899 67.972 47.842 H 0.0 **** 0.0
5845 H 95.9 68.705 46.566 H 0.0 **** 0.0
5846 C 13.361 68.883 70.514 C 0.0 **** 0.0
5847 H 13.103 69.902 70.222 H 0.0 **** 0.0
5848 H 13.268 68.781 71.595 H 0.0 **** 0.0
5849 H 14.387 68.669 70.215 H 0.0 **** 0.0
5850 H 12.686 68.183 70.022 H 0.0 **** 0.0
5851 C 91.069 31.655 38.539 C 0.0 **** 0.0
5852 H 91.901 31.957 37.903 H 0.0 **** 0.0
5853 H 90.552 30.809 38.084 H 0.0 **** 0.0
5854 H 90.375 32.488 38.649 H 0.0 **** 0.0
5855 H 91.448 31.365 39.519 H 0.0 **** 0.0
5856 C 63.458 73.506 34.554 C 0.0 **** 0.0
5857 H 63.793 73.179 35.539 H 0.0 **** 0.0
5858 H 62.504 73.034 34.32 H 0.0 **** 0.0
5859 H 64.198 73.223 33.806 H 0.0 **** 0.0
5860 H 63.337 74.59 34.554 H 0.0 **** 0.0
5861 C 66.431 90.927 43.93 C 0.0 **** 0.0
5862 H 66.098 91.937 43.692 H 0.0 **** 0.0
5863 H 67.029 90.947 44.841 H 0.0 **** 0.0
5864 H 67.034 90.54 43.108 H 0.0 **** 0.0
5865 H 65.563 90.284 44.078 H 0.0 **** 0.0
5866 C 93.957 77.46 26.455 C 0.0 **** 0.0
5867 H 94.792 78.098 26.744 H 0.0 **** 0.0
5868 H 93.48 77.058 27.349 H 0.0 **** 0.0
5869 H 94.323 76.64 25.837 H 0.0 **** 0.0
5870 H 93.232 78.046 25.889 H 0.0 **** 0.0
5871 C 5.346 73.898 38.416 C 0.0 **** 0.0
5872 H 4.663 74.551 38.959 H 0.0 **** 0.0
5873 H 5.056 72.859 38.572 H 0.0 **** 0.0
5874 H 6.362 74.051 38.781 H 0.0 **** 0.0
5875 H 5.303 74.133 37.352 H 0.0 **** 0.0
5876 C 33.673 37.025 20.213 C 0.0 **** 0.0
5877 H 33.202 37.875 19.719 H 0.0 **** 0.0
5878 H 34.749 37.055 20.04 H 0.0 **** 0.0
5879 H 33.265 36.098 19.81 H 0.0 **** 0.0
5880 H 33.476 37.073 21.284 H 0.0 **** 0.0
5881 C 37.026 8.289 48.878 C 0.0 **** 0.0
5882 H 37.018 8.149 47.797 H 0.0 **** 0.0
5883 H 36.209 7.72 49.324 H 0.0 **** 0.0
5884 H 36.9 9.347 49.108 H 0.0 **** 0.0
5885 H 37.976 7.94 49.283 H 0.0 **** 0.0
5886 C 87.353 2.744 43.846 C 0.0 **** 0.0
5887 H 87.281 2.904 42.77 H 0.0 **** 0.0
5888 H 87.788 1.763 44.039 H 0.0 **** 0.0
5889 H 86.358 2.794 44.288 H 0.0 **** 0.0
5890 H 87.985 3.515 44.286 H 0.0 **** 0.0
5891 C 29.044 43.272 37.581 C 0.0 **** 0.0
5892 H 29.941 43.042 38.156 H 0.0 **** 0.0
5893 H 28.427 42.377 37.497 H 0.0 **** 0.0
5894 H 29.328 43.613 36.586 H 0.0 **** 0.0
5895 H 28.48 44.056 38.087 H 0.0 **** 0.0
5896 C 57.2 19.198 42.178 C 0.0 **** 0.0
5897 H 57.963 19.825 42.64 H 0.0 **** 0.0
5898 H 56.416 18.985 42.905 H 0.0 **** 0.0
5899 H 57.652 18.263 41.846 H 0.0 **** 0.0
5900 H 56.771 19.718 41.322 H 0.0 **** 0.0
5901 C 50.805 87.636 26.644 C 0.0 **** 0.0
5902 H 49.744 87.394 26.709 H 0.0 **** 0.0
5903 H 51.242 87.626 27.643 H 0.0 **** 0.0
5904 H 50.925 88.626 26.204 H 0.0 **** 0.0
5905 H 51.308 86.898 26.019 H 0.0 **** 0.0
5906 C 42.005 95.305 75.031 C 0.0 **** 0.0
5907 H 42.042 94.352 74.503 H 0.0 **** 0.0
5908 H 41.876 96.114 74.312 H 0.0 **** 0.0
5909 H 42.934 95.452 75.582 H 0.0 **** 0.0
5910 H 41.166 95.301 75.728 H 0.0 **** 0.0
5911 C 96.972 8.906 65.445 C 0.0 **** 0.0
5912 H 97.657 9.432 66.109 H 0.0 **** 0.0
5913 H 95.949 9.04 65.798 H 0.0 **** 0.0
5914 H 97.218 7.845 65.436 H 0.0 **** 0.0
5915 H 97.064 9.309 64.436 H 0.0 **** 0.0
5916 C 30.867 63.94 56.587 C 0.0 **** 0.0
5917 H 30.602 62.888 56.7 H 0.0 **** 0.0
5918 H 31.057 64.374 57.568 H 0.0 **** 0.0
5919 H 30.045 64.471 56.107 H 0.0 **** 0.0
5920 H 31.763 64.024 55.971 H 0.0 **** 0.0
5921 C 54.652 52.058 28.912 C 0.0 **** 0.0
5922 H 54.482 51.381 28.075 H 0.0 **** 0.0
5923 H 55.713 52.304 28.971 H 0.0 **** 0.0
5924 H 54.339 51.577 29.839 H 0.0 **** 0.0
5925 H 54.075 52.971 28.764 H 0.0 **** 0.0
5926 C 10.874 3.344 30.2 C 0.0 **** 0.0
5927 H 10.069 3.89 29.708 H 0.0 **** 0.0
5928 H 10.605 2.29 30.275 H 0.0 **** 0.0
5929 H 11.031 3.752 31.198 H 0.0 **** 0.0
5930 H 11.79 3.446 29.618 H 0.0 **** 0.0
5931 C 83.547 74.324 77.583 C 0.0 **** 0.0
5932 H 82.772 73.632 77.911 H 0.0 **** 0.0
5933 H 83.086 75.177 77.084 H 0.0 **** 0.0
5934 H 84.217 73.816 76.889 H 0.0 **** 0.0
5935 H 84.113 74.671 78.447 H 0.0 **** 0.0
5936 C 2.06 45.359 66.46 C 0.0 **** 0.0
5937 H 2.596 46.154 66.978 H 0.0 **** 0.0
5938 H 0.989 45.471 66.633 H 0.0 **** 0.0
5939 H 2.39 44.392 66.84 H 0.0 **** 0.0
5940 H 2.264 45.419 65.391 H 0.0 **** 0.0
5941 C 32.531 53.039 32.778 C 0.0 **** 0.0
5942 H 32.246 52.13 33.306 H 0.0 **** 0.0
5943 H 32.01 53.891 33.214 H 0.0 **** 0.0
5944 H 32.262 52.947 31.726 H 0.0 **** 0.0
5945 H 33.608 53.188 32.866 H 0.0 **** 0.0
5946 C 9.792 55.082 83.716 C 0.0 **** 0.0
5947 H 9.184 54.178 83.702 H 0.0 **** 0.0
5948 H 10.819 54.825 83.976 H 0.0 **** 0.0
5949 H 9.392 55.777 84.456 H 0.0 **** 0.0
5950 H 9.772 55.549 82.731 H 0.0 **** 0.0
5951 C 28.453 34.098 9.185 C 0.0 **** 0.0
5952 H 29.044 34.339 10.069 H 0.0 **** 0.0
5953 H 28.803 34.692 8.341 H 0.0 **** 0.0
5954 H 27.404 34.321 9.377 H 0.0 **** 0.0
5955 H 28.563 33.038 8.954 H 0.0 **** 0.0
5956 C 58.955 94.321 50.96 C 0.0 **** 0.0
5957 H 58.112 94.039 51.591 H 0.0 **** 0.0
5958 H 59.692 93.518 50.958 H 0.0 **** 0.0
5959 H 59.411 95.232 51.348 H 0.0 **** 0.0
5960 H 58.604 94.496 49.943 H 0.0 **** 0.0
5961 C 47.505 7.715 13.7 C 0.0 **** 0.0
5962 H 47.331 6.941 14.448 H 0.0 **** 0.0
5963 H 46.842 7.554 12.85 H 0.0 **** 0.0
5964 H 48.541 7.672 13.366 H 0.0 **** 0.0
5965 H 47.304 8.693 14.137 H 0.0 **** 0.0
5966 C 38.821 62.159 17.102 C 0.0 **** 0.0
5967 H 38.945 62.333 16.033 H 0.0 **** 0.0
5968 H 39.639 62.634 17.644 H 0.0 **** 0.0
5969 H 38.827 61.087 17.299 H 0.0 **** 0.0
5970 H 37.872 62.584 17.431 H 0.0 **** 0.0
5971 C 43.421 91.811 65.554 C 0.0 **** 0.0
5972 H 44.04 91.254 64.852 H 0.0 **** 0.0
5973 H 43.785 91.647 66.569 H 0.0 **** 0.0
5974 H 42.389 91.47 65.478 H 0.0 **** 0.0
5975 H 43.47 92.874 65.318 H 0.0 **** 0.0
5976 C 39.31 37.396 24.049 C 0.0 **** 0.0
5977 H 39.705 38.397 24.221 H 0.0 **** 0.0
5978 H 39.136 37.253 22.982 H 0.0 **** 0.0
5979 H 38.372 37.277 24.59 H 0.0 **** 0.0
5980 H 40.029 36.657 24.402 H 0.0 **** 0.0
5981 C 51.29 59.838 84.49 C 0.0 **** 0.0
5982 H 51.18 59.024 85.206 H 0.0 **** 0.0
5983 H 50.324 60.321 84.338 H 0.0 **** 0.0
5984 H 51.652 59.442 83.542 H 0.0 **** 0.0
5985 H 52.004 60.567 84.875 H 0.0 **** 0.0
5986 C 36.372 1.107 30.317 C 0.0 **** 0.0
5987 H 36.408 1.17 29.23 H 0.0 **** 0.0
5988 H 37.208 1.666 30.74 H 0.0 **** 0.0
5989 H 36.44 0.063 30.624 H 0.0 **** 0.0
5990 H 35.434 1.531 30.675 H 0.0 **** 0.0
5991 C 93.294 44.232 28.852 C 0.0 **** 0.0
5992 H 93.571 44.955 29.62 H 0.0 **** 0.0
5993 H 92.388 44.568 28.348 H 0.0 **** 0.0
5994 H 93.114 43.262 29.315 H 0.0 **** 0.0
5995 H 94.103 44.145 28.127 H 0.0 **** 0.0
5996 C 95.402 18.24 33.019 C 0.0 **** 0.0
5997 H 95.507 18.14 34.1 H 0.0 **** 0.0
5998 H 94.485 18.784 32.793 H 0.0 **** 0.0
5999 H 95.359 17.25 32.565 H 0.0 **** 0.0
6000 H 96.257 18.786 32.621 H 0.0 **** 0.0
6001 C 49.26 30.454 3.92 C 0.0 **** 0.0
6002 H 48.674 31.273 3.502 H 0.0 **** 0.0
6003 H 50.052 30.859 4.551 H 0.0 **** 0.0
6004 H 49.701 29.873 3.11 H 0.0 **** 0.0
6005 H 48.612 29.812 4.517 H 0.0 **** 0.0
6006 C 62.201 42.917 94.372 C 0.0 **** 0.0
6007 H 61.553 43.653 94.848 H 0.0 **** 0.0
6008 H 63.24 43.134 94.621 H 0.0 **** 0.0
6009 H 62.069 42.962 93.291 H 0.0 **** 0.0
6010 H 61.943 41.92 94.729 H 0.0 **** 0.0
6011 C 83.73 55.166 63.373 C 0.0 **** 0.0
6012 H 84.371 55.011 64.241 H 0.0 **** 0.0
6013 H 82.74 55.481 63.704 H 0.0 **** 0.0
6014 H 83.646 54.235 62.813 H 0.0 **** 0.0
6015 H 84.162 55.936 62.735 H 0.0 **** 0.0
6016 C 18.676 83.693 31.066 C 0.0 **** 0.0
6017 H 18.781 83.787 32.147 H 0.0 **** 0.0
6018 H 19.23 84.493 30.576 H 0.0 **** 0.0
6019 H 17.622 83.763 30.797 H 0.0 **** 0.0
6020 H 19.07 82.728 30.746 H 0.0 **** 0.0
6021 C 78.142 84.994 25.631 C 0.0 **** 0.0
6022 H 79.003 84.771 25.0 H 0.0 **** 0.0
6023 H 77.683 85.927 25.302 H 0.0 **** 0.0
6024 H 78.467 85.094 26.666 H 0.0 **** 0.0
6025 H 77.416 84.185 25.554 H 0.0 **** 0.0
6026 C 24.353 88.448 60.877 C 0.0 **** 0.0
6027 H 23.798 87.694 60.319 H 0.0 **** 0.0
6028 H 25.222 88.762 60.299 H 0.0 **** 0.0
6029 H 24.68 88.028 61.828 H 0.0 **** 0.0
6030 H 23.709 89.308 61.062 H 0.0 **** 0.0
6031 C 84.901 69.356 29.328 C 0.0 **** 0.0
6032 H 84.668 69.352 30.393 H 0.0 **** 0.0
6033 H 84.008 69.095 28.76 H 0.0 **** 0.0
6034 H 85.687 68.627 29.127 H 0.0 **** 0.0
6035 H 85.242 70.348 29.034 H 0.0 **** 0.0
6036 C 95.828 66.38 64.984 C 0.0 **** 0.0
6037 H 96.336 66.676 65.902 H 0.0 **** 0.0
6038 H 94.756 66.539 65.094 H 0.0 **** 0.0
6039 H 96.021 65.325 64.786 H 0.0 **** 0.0
6040 H 96.201 66.979 64.153 H 0.0 **** 0.0
6041 C 80.898 10.776 14.962 C 0.0 **** 0.0
6042 H 80.572 10.026 14.241 H 0.0 **** 0.0
6043 H 81.935 10.585 15.241 H 0.0 **** 0.0
6044 H 80.267 10.726 15.849 H 0.0 **** 0.0
6045 H 80.818 11.767 14.515 H 0.0 **** 0.0
6046 C 93.301 47.159 26.085 C 0.0 **** 0.0
6047 H 93.59 47.241 25.037 H 0.0 **** 0.0
6048 H 94.052 47.646 26.707 H 0.0 **** 0.0
6049 H 93.227 46.107 26.36 H 0.0 **** 0.0
6050 H 92.336 47.643 26.235 H 0.0 **** 0.0
6051 C 25.968 70.231 41.35 C 0.0 **** 0.0
6052 H 25.14 70.465 40.68 H 0.0 **** 0.0
6053 H 26.07 69.149 41.436 H 0.0 **** 0.0
6054 H 25.771 70.657 42.333 H 0.0 **** 0.0
6055 H 26.889 70.653 40.949 H 0.0 **** 0.0
6056 C 49.318 27.721 78.165 C 0.0 **** 0.0
6057 H 49.19 28.405 77.327 H 0.0 **** 0.0
6058 H 50.111 27.009 77.936 H 0.0 **** 0.0
6059 H 48.386 27.184 78.341 H 0.0 **** 0.0
6060 H 49.584 28.287 79.058 H 0.0 **** 0.0
6061 C 66.746 25.811 59.061 C 0.0 **** 0.0
6062 H 66.747 25.685 57.978 H 0.0 **** 0.0
6063 H 67.772 25.804 59.428 H 0.0 **** 0.0
6064 H 66.189 24.994 59.52 H 0.0 **** 0.0
6065 H 66.274 26.76 59.316 H 0.0 **** 0.0
6066 C 47.894 77.365 58.916 C 0.0 **** 0.0
6067 H 48.394 77.414 57.948 H 0.0 **** 0.0
6068 H 47.175 78.181 58.994 H 0.0 **** 0.0
6069 H 48.633 77.454 59.712 H 0.0 **** 0.0
6070 H 47.374 76.412 59.007 H 0.0 **** 0.0
6071 C 79.454 48.445 31.25 C 0.0 **** 0.0
6072 H 78.958 47.483 31.381 H 0.0 **** 0.0
6073 H 80.005 48.444 30.31 H 0.0 **** 0.0
6074 H 80.144 48.612 32.077 H 0.0 **** 0.0
6075 H 78.707 49.239 31.234 H 0.0 **** 0.0
6076 C 36.077 89.63 50.996 C 0.0 **** 0.0
6077 H 35.626 90.27 50.238 H 0.0 **** 0.0
6078 H 35.613 88.644 50.961 H 0.0 **** 0.0
6079 H 35.923 90.07 51.981 H 0.0 **** 0.0
6080 H 37.146 89.536 50.803 H 0.0 **** 0.0
6081 C 47.68 46.967 93.688 C 0.0 **** 0.0
6082 H 46.747 47.526 93.613 H 0.0 **** 0.0
6083 H 48.254 47.094 92.77 H 0.0 **** 0.0
6084 H 47.458 45.91 93.836 H 0.0 **** 0.0
6085 H 48.259 47.339 94.533 H 0.0 **** 0.0
6086 C 74.002 72.822 46.45 C 0.0 **** 0.0
6087 H 73.757 71.993 47.114 H 0.0 **** 0.0
6088 H 74.138 72.448 45.436 H 0.0 **** 0.0
6089 H 74.921 73.299 46.789 H 0.0 **** 0.0
6090 H 73.189 73.549 46.463 H 0.0 **** 0.0
6091 C 22.599 87.63 76.855 C 0.0 **** 0.0
6092 H 22.523 87.854 77.92 H 0.0 **** 0.0
6093 H 23.267 86.78 76.71 H 0.0 **** 0.0
6094 H 22.996 88.498 76.33 H 0.0 **** 0.0
6095 H 21.611 87.388 76.464 H 0.0 **** 0.0
6096 C 96.102 5.558 74.475 C 0.0 **** 0.0
6097 H 96.704 5.616 73.568 H 0.0 **** 0.0
6098 H 95.54 6.484 74.596 H 0.0 **** 0.0
6099 H 96.756 5.414 75.335 H 0.0 **** 0.0
6100 H 95.411 4.719 74.399 H 0.0 **** 0.0
6101 C 19.681 92.719 11.086 C 0.0 **** 0.0
6102 H 19.692 92.63 10.0 H 0.0 **** 0.0
6103 H 20.705 92.776 11.456 H 0.0 **** 0.0
6104 H 19.187 91.848 11.517 H 0.0 **** 0.0
6105 H 19.141 93.621 11.371 H 0.0 **** 0.0
6106 C 46.184 54.547 65.447 C 0.0 **** 0.0
6107 H 46.22 54.538 66.536 H 0.0 **** 0.0
6108 H 47.199 54.566 65.05 H 0.0 **** 0.0
6109 H 45.644 55.432 65.109 H 0.0 **** 0.0
6110 H 45.672 53.652 65.093 H 0.0 **** 0.0
6111 C 20.645 84.141 91.721 C 0.0 **** 0.0
6112 H 20.792 83.253 91.106 H 0.0 **** 0.0
6113 H 19.666 84.571 91.509 H 0.0 **** 0.0
6114 H 21.421 84.873 91.493 H 0.0 **** 0.0
6115 H 20.702 83.868 92.774 H 0.0 **** 0.0
6116 C 91.124 14.165 84.684 C 0.0 **** 0.0
6117 H 90.822 13.674 83.758 H 0.0 **** 0.0
6118 H 91.859 14.938 84.462 H 0.0 **** 0.0
6119 H 91.562 13.429 85.358 H 0.0 **** 0.0
6120 H 90.252 14.616 85.156 H 0.0 **** 0.0
6121 C 18.843 26.997 39.218 C 0.0 **** 0.0
6122 H 18.186 26.639 38.426 H 0.0 **** 0.0
6123 H 18.417 27.897 39.663 H 0.0 **** 0.0
6124 H 19.823 27.228 38.8 H 0.0 **** 0.0
6125 H 18.946 26.227 39.982 H 0.0 **** 0.0
6126 C 22.616 35.873 51.182 C 0.0 **** 0.0
6127 H 23.122 35.549 50.273 H 0.0 **** 0.0
6128 H 23.046 35.357 52.041 H 0.0 **** 0.0
6129 H 21.554 35.636 51.111 H 0.0 **** 0.0
6130 H 22.741 36.949 51.304 H 0.0 **** 0.0
6131 C 80.924 26.005 12.886 C 0.0 **** 0.0
6132 H 80.802 26.851 12.21 H 0.0 **** 0.0
6133 H 81.63 26.269 13.674 H 0.0 **** 0.0
6134 H 81.304 25.148 12.33 H 0.0 **** 0.0
6135 H 79.961 25.752 13.33 H 0.0 **** 0.0
6136 C 91.073 17.204 87.384 C 0.0 **** 0.0
6137 H 91.835 17.79 86.87 H 0.0 **** 0.0
6138 H 90.183 17.816 87.533 H 0.0 **** 0.0
6139 H 91.456 16.878 88.351 H 0.0 **** 0.0
6140 H 90.818 16.332 86.781 H 0.0 **** 0.0
6141 C 22.301 51.424 27.58 C 0.0 **** 0.0
6142 H 22.124 52.351 28.126 H 0.0 **** 0.0
6143 H 22.997 50.8 28.14 H 0.0 **** 0.0
6144 H 22.724 51.654 26.602 H 0.0 **** 0.0
6145 H 21.358 50.893 27.452 H 0.0 **** 0.0
6146 C 28.322 8.205 97.239 C 0.0 **** 0.0
6147 H 29.183 8.507 96.643 H 0.0 **** 0.0
6148 H 27.607 7.68 96.605 H 0.0 **** 0.0
6149 H 27.848 9.089 97.666 H 0.0 **** 0.0
6150 H 28.649 7.545 98.042 H 0.0 **** 0.0
6151 C 46.954 33.276 50.595 C 0.0 **** 0.0
6152 H 46.02 33.816 50.443 H 0.0 **** 0.0
6153 H 46.842 32.588 51.433 H 0.0 **** 0.0
6154 H 47.753 33.985 50.81 H 0.0 **** 0.0
6155 H 47.199 32.714 49.694 H 0.0 **** 0.0
6156 C 81.559 85.393 30.212 C 0.0 **** 0.0
6157 H 82.493 84.991 30.604 H 0.0 **** 0.0
6158 H 81.391 85.007 29.206 H 0.0 **** 0.0
6159 H 81.617 86.481 30.18 H 0.0 **** 0.0
6160 H 80.735 85.092 30.859 H 0.0 **** 0.0
6161 C 57.587 26.11 80.302 C 0.0 **** 0.0
6162 H 58.176 26.663 79.57 H 0.0 **** 0.0
6163 H 56.718 25.672 79.812 H 0.0 **** 0.0
6164 H 57.258 26.788 81.09 H 0.0 **** 0.0
6165 H 58.198 25.319 80.736 H 0.0 **** 0.0
6166 C 27.877 62.416 15.587 C 0.0 **** 0.0
6167 H 28.045 61.397 15.935 H 0.0 **** 0.0
6168 H 28.771 63.014 15.769 H 0.0 **** 0.0
6169 H 27.034 62.849 16.124 H 0.0 **** 0.0
6170 H 27.66 62.404 14.519 H 0.0 **** 0.0
6171 C 54.478 8.344 25.27 C 0.0 **** 0.0
6172 H 54.789 8.617 24.262 H 0.0 **** 0.0
6173 H 55.218 8.698 25.987 H 0.0 **** 0.0
6174 H 54.391 7.259 25.341 H 0.0 **** 0.0
6175 H 53.512 8.8 25.488 H 0.0 **** 0.0
6176 C 1.529 16.481 88.227 C 0.0 **** 0.0
6177 H 1.533 16.508 89.317 H 0.0 **** 0.0
6178 H 2.167 17.276 87.841 H 0.0 **** 0.0
6179 H 0.511 16.623 87.865 H 0.0 **** 0.0
6180 H 1.904 15.515 87.887 H 0.0 **** 0.0
6181 C 52.038 54.03 95.238 C 0.0 **** 0.0
6182 H 52.035 54.027 94.148 H 0.0 **** 0.0
6183 H 51.026 54.211 95.603 H 0.0 **** 0.0
6184 H 52.7 54.817 95.597 H 0.0 **** 0.0
6185 H 52.389 53.065 95.603 H 0.0 **** 0.0
6186 C 53.708 37.513 42.0 C 0.0 **** 0.0
6187 H 54.176 37.688 41.031 H 0.0 **** 0.0
6188 H 54.158 36.637 42.468 H 0.0 **** 0.0
6189 H 52.64 37.344 41.862 H 0.0 **** 0.0
6190 H 53.859 38.384 42.638 H 0.0 **** 0.0
6191 C 25.314 27.981 94.729 C 0.0 **** 0.0
6192 H 24.726 27.815 95.632 H 0.0 **** 0.0
6193 H 24.706 27.751 93.854 H 0.0 **** 0.0
6194 H 26.191 27.334 94.743 H 0.0 **** 0.0
6195 H 25.631 29.023 94.689 H 0.0 **** 0.0
6196 C 45.656 14.153 44.814 C 0.0 **** 0.0
6197 H 44.601 14.013 44.582 H 0.0 **** 0.0
6198 H 45.804 15.142 45.249 H 0.0 **** 0.0
6199 H 46.244 14.067 43.9 H 0.0 **** 0.0
6200 H 45.976 13.391 45.524 H 0.0 **** 0.0
6201 C 12.242 30.42 34.934 C 0.0 **** 0.0
6202 H 12.602 29.755 35.718 H 0.0 **** 0.0
6203 H 12.646 31.42 35.092 H 0.0 **** 0.0
6204 H 11.153 30.459 34.964 H 0.0 **** 0.0
6205 H 12.566 30.046 33.963 H 0.0 **** 0.0
6206 C 75.994 80.442 66.713 C 0.0 **** 0.0
6207 H 75.012 80.049 66.45 H 0.0 **** 0.0
6208 H 76.426 79.836 67.51 H 0.0 **** 0.0
6209 H 75.893 81.473 67.053 H 0.0 **** 0.0
6210 H 76.644 80.41 65.838 H 0.0 **** 0.0
6211 C 39.929 44.744 63.964 C 0.0 **** 0.0
6212 H 39.685 44.25 64.905 H 0.0 **** 0.0
6213 H 39.214 44.441 63.199 H 0.0 **** 0.0
6214 H 40.935 44.458 63.655 H 0.0 **** 0.0
6215 H 39.883 45.824 64.098 H 0.0 **** 0.0
6216 C 37.818 86.374 17.866 C 0.0 **** 0.0
6217 H 37.006 87.077 18.049 H 0.0 **** 0.0
6218 H 38.743 86.771 18.285 H 0.0 **** 0.0
6219 H 37.938 86.228 16.793 H 0.0 **** 0.0
6220 H 37.585 85.42 18.339 H 0.0 **** 0.0
6221 C 70.038 9.021 81.372 C 0.0 **** 0.0
6222 H 70.068 9.033 82.461 H 0.0 **** 0.0
6223 H 70.283 10.012 80.991 H 0.0 **** 0.0
6224 H 69.038 8.741 81.04 H 0.0 **** 0.0
6225 H 70.761 8.297 80.996 H 0.0 **** 0.0
6226 C 86.093 92.612 6.578 C 0.0 **** 0.0
6227 H 85.687 91.801 7.182 H 0.0 **** 0.0
6228 H 85.95 93.559 7.098 H 0.0 **** 0.0
6229 H 85.578 92.643 5.618 H 0.0 **** 0.0
6230 H 87.158 92.444 6.414 H 0.0 **** 0.0
6231 C 4.605 36.488 90.871 C 0.0 **** 0.0
6232 H 4.494 37.303 91.586 H 0.0 **** 0.0
6233 H 3.802 35.766 91.016 H 0.0 **** 0.0
6234 H 5.567 35.998 91.025 H 0.0 **** 0.0
6235 H 4.558 36.886 89.857 H 0.0 **** 0.0
6236 C 19.032 29.051 41.891 C 0.0 **** 0.0
6237 H 18.033 29.394 41.623 H 0.0 **** 0.0
6238 H 19.704 29.194 41.044 H 0.0 **** 0.0
6239 H 18.995 27.993 42.152 H 0.0 **** 0.0
6240 H 19.396 29.623 42.745 H 0.0 **** 0.0
6241 C 80.221 36.335 55.666 C 0.0 **** 0.0
6242 H 80.532 36.17 56.697 H 0.0 **** 0.0
6243 H 80.343 35.413 55.098 H 0.0 **** 0.0
6244 H 80.835 37.12 55.223 H 0.0 **** 0.0
6245 H 79.174 36.639 55.647 H 0.0 **** 0.0
6246 C 45.218 9.238 62.385 C 0.0 **** 0.0
6247 H 45.391 9.602 61.372 H 0.0 **** 0.0
6248 H 44.689 8.286 62.344 H 0.0 **** 0.0
6249 H 44.619 9.964 62.935 H 0.0 **** 0.0
6250 H 46.175 9.101 62.889 H 0.0 **** 0.0
6251 C 78.973 60.175 18.72 C 0.0 **** 0.0
6252 H 79.972 59.746 18.803 H 0.0 **** 0.0
6253 H 78.23 59.41 18.944 H 0.0 **** 0.0
6254 H 78.821 60.545 17.706 H 0.0 **** 0.0
6255 H 78.872 60.999 19.426 H 0.0 **** 0.0
6256 C 56.16 83.559 93.638 C 0.0 **** 0.0
6257 H 55.501 84.01 94.379 H 0.0 **** 0.0
6258 H 55.671 82.691 93.196 H 0.0 **** 0.0
6259 H 57.088 83.249 94.117 H 0.0 **** 0.0
6260 H 56.38 84.288 92.857 H 0.0 **** 0.0
6261 C 74.454 23.908 13.934 C 0.0 **** 0.0
6262 H 74.303 23.129 14.681 H 0.0 **** 0.0
6263 H 75.486 23.881 13.584 H 0.0 **** 0.0
6264 H 74.246 24.882 14.379 H 0.0 **** 0.0
6265 H 73.78 23.741 13.094 H 0.0 **** 0.0
6266 C 84.302 56.129 55.774 C 0.0 **** 0.0
6267 H 83.408 56.753 55.781 H 0.0 **** 0.0
6268 H 84.773 56.159 56.757 H 0.0 **** 0.0
6269 H 84.999 56.503 55.024 H 0.0 **** 0.0
6270 H 84.026 55.102 55.534 H 0.0 **** 0.0
6271 C 54.987 93.381 7.686 C 0.0 **** 0.0
6272 H 55.149 92.305 7.746 H 0.0 **** 0.0
6273 H 54.448 93.617 6.768 H 0.0 **** 0.0
6274 H 55.948 93.894 7.686 H 0.0 **** 0.0
6275 H 54.401 93.708 8.545 H 0.0 **** 0.0
6276 C 35.112 27.675 24.467 C 0.0 **** 0.0
6277 H 35.692 28.364 25.081 H 0.0 **** 0.0
6278 H 35.687 27.407 23.581 H 0.0 **** 0.0
6279 H 34.181 28.155 24.164 H 0.0 **** 0.0
6280 H 34.888 26.777 25.041 H 0.0 **** 0.0
6281 C 41.47 49.717 37.322 C 0.0 **** 0.0
6282 H 41.123 48.707 37.104 H 0.0 **** 0.0
6283 H 41.789 50.199 36.397 H 0.0 **** 0.0
6284 H 42.309 49.671 38.016 H 0.0 **** 0.0
6285 H 40.658 50.291 37.769 H 0.0 **** 0.0
6286 C 8.228 17.189 51.335 C 0.0 **** 0.0
6287 H 8.301 16.738 52.325 H 0.0 **** 0.0
6288 H 8.534 18.234 51.388 H 0.0 **** 0.0
6289 H 7.198 17.128 50.984 H 0.0 **** 0.0
6290 H 8.88 16.654 50.644 H 0.0 **** 0.0
6291 C 78.263 41.488 29.736 C 0.0 **** 0.0
6292 H 79.127 41.868 30.281 H 0.0 **** 0.0
6293 H 78.455 41.549 28.664 H 0.0 **** 0.0
6294 H 77.387 42.087 29.983 H 0.0 **** 0.0
6295 H 78.084 40.45 30.015 H 0.0 **** 0.0
6296 C 84.766 78.973 12.935 C 0.0 **** 0.0
6297 H 84.599 79.133 11.87 H 0.0 **** 0.0
6298 H 85.272 79.841 13.357 H 0.0 **** 0.0
6299 H 85.385 78.087 13.076 H 0.0 **** 0.0
6300 H 83.808 78.83 13.436 H 0.0 **** 0.0
6301 C 8.961 97.177 20.906 C 0.0 **** 0.0
6302 H 9.266 97.285 21.946 H 0.0 **** 0.0
6303 H 9.837 96.977 20.289 H 0.0 **** 0.0
6304 H 8.481 98.097 20.57 H 0.0 **** 0.0
6305 H 8.258 96.348 20.818 H 0.0 **** 0.0
6306 C 14.503 8.309 6.067 C 0.0 **** 0.0
6307 H 14.611 7.281 5.719 H 0.0 **** 0.0
6308 H 15.342 8.562 6.715 H 0.0 **** 0.0
6309 H 13.571 8.408 6.622 H 0.0 **** 0.0
6310 H 14.489 8.983 5.21 H 0.0 **** 0.0
6311 C 74.865 59.529 92.765 C 0.0 **** 0.0
6312 H 74.932 58.465 92.538 H 0.0 **** 0.0
6313 H 74.203 59.676 93.618 H 0.0 **** 0.0
6314 H 74.468 60.06 91.9 H 0.0 **** 0.0
6315 H 75.857 59.912 93.003 H 0.0 **** 0.0
6316 C 60.409 64.548 68.944 C 0.0 **** 0.0
6317 H 60.12 64.09 69.89 H 0.0 **** 0.0
6318 H 59.589 65.163 68.572 H 0.0 **** 0.0
6319 H 60.636 63.767 68.217 H 0.0 **** 0.0
6320 H 61.291 65.17 69.096 H 0.0 **** 0.0
6321 C 87.776 84.985 65.239 C 0.0 **** 0.0
6322 H 87.769 83.897 65.174 H 0.0 **** 0.0
6323 H 88.298 85.291 66.146 H 0.0 **** 0.0
6324 H 86.75 85.353 65.268 H 0.0 **** 0.0
6325 H 88.286 85.397 64.368 H 0.0 **** 0.0
6326 C 26.317 87.408 96.271 C 0.0 **** 0.0
6327 H 26.307 87.477 97.359 H 0.0 **** 0.0
6328 H 26.564 86.388 95.974 H 0.0 **** 0.0
6329 H 27.064 88.094 95.871 H 0.0 **** 0.0
6330 H 25.335 87.673 95.881 H 0.0 **** 0.0
6331 C 8.114 72.725 3.027 C 0.0 **** 0.0
6332 H 8.587 73.412 2.326 H 0.0 **** 0.0
6333 H 7.934 71.77 2.534 H 0.0 **** 0.0
6334 H 7.166 73.145 3.363 H 0.0 **** 0.0
6335 H 8.769 72.574 3.885 H 0.0 **** 0.0
6336 C 92.616 87.797 4.411 C 0.0 **** 0.0
6337 H 92.571 87.933 3.33 H 0.0 **** 0.0
6338 H 91.619 87.571 4.789 H 0.0 **** 0.0
6339 H 92.983 88.712 4.877 H 0.0 **** 0.0
6340 H 93.29 86.974 4.645 H 0.0 **** 0.0
6341 C 17.435 21.322 42.61 C 0.0 **** 0.0
6342 H 18.43 20.944 42.375 H 0.0 **** 0.0
6343 H 16.907 20.594 43.227 H 0.0 **** 0.0
6344 H 16.881 21.485 41.686 H 0.0 **** 0.0
6345 H 17.523 22.263 43.153 H 0.0 **** 0.0
6346 C 46.979 62.334 23.744 C 0.0 **** 0.0
6347 H 47.27 62.663 24.742 H 0.0 **** 0.0
6348 H 46.262 61.517 23.826 H 0.0 **** 0.0
6349 H 47.861 61.992 23.203 H 0.0 **** 0.0
6350 H 46.523 63.166 23.207 H 0.0 **** 0.0
6351 C 58.72 17.985 80.592 C 0.0 **** 0.0
6352 H 57.826 17.379 80.445 H 0.0 **** 0.0
6353 H 59.235 18.11 79.639 H 0.0 **** 0.0
6354 H 59.382 17.489 81.302 H 0.0 **** 0.0
6355 H 58.435 18.962 80.982 H 0.0 **** 0.0
6356 C 7.056 9.115 45.262 C 0.0 **** 0.0
6357 H 6.883 9.186 44.188 H 0.0 **** 0.0
6358 H 6.183 9.49 45.796 H 0.0 **** 0.0
6359 H 7.93 9.71 45.529 H 0.0 **** 0.0
6360 H 7.229 8.073 45.533 H 0.0 **** 0.0
6361 C 24.625 79.456 94.892 C 0.0 **** 0.0
6362 H 24.802 79.77 93.863 H 0.0 **** 0.0
6363 H 24.551 80.336 95.531 H 0.0 **** 0.0
6364 H 25.452 78.831 95.228 H 0.0 **** 0.0
6365 H 23.696 78.889 94.944 H 0.0 **** 0.0
6366 C 5.443 58.122 94.179 C 0.0 **** 0.0
6367 H 4.869 58.238 95.099 H 0.0 **** 0.0
6368 H 4.881 57.506 93.477 H 0.0 **** 0.0
6369 H 6.396 57.643 94.403 H 0.0 **** 0.0
6370 H 5.624 59.103 93.738 H 0.0 **** 0.0
6371 C 43.097 3.497 62.009 C 0.0 **** 0.0
6372 H 42.515 4.127 62.681 H 0.0 **** 0.0
6373 H 42.502 2.632 61.715 H 0.0 **** 0.0
6374 H 44.001 3.161 62.518 H 0.0 **** 0.0
6375 H 43.371 4.068 61.122 H 0.0 **** 0.0
6376 C 91.39 41.315 28.469 C 0.0 **** 0.0
6377 H 90.426 41.34 28.978 H 0.0 **** 0.0
6378 H 91.583 42.286 28.013 H 0.0 **** 0.0
6379 H 91.373 40.547 27.697 H 0.0 **** 0.0
6380 H 92.176 41.089 29.19 H 0.0 **** 0.0
6381 C 36.595 46.092 32.234 C 0.0 **** 0.0
6382 H 36.669 45.949 33.312 H 0.0 **** 0.0
6383 H 35.545 46.106 31.941 H 0.0 **** 0.0
6384 H 37.103 45.274 31.723 H 0.0 **** 0.0
6385 H 37.062 47.038 31.96 H 0.0 **** 0.0
6386 C 7.855 20.739 43.152 C 0.0 **** 0.0
6387 H 8.413 20.905 44.073 H 0.0 **** 0.0
6388 H 8.428 20.086 42.493 H 0.0 **** 0.0
6389 H 7.681 21.694 42.656 H 0.0 **** 0.0
6390 H 6.898 20.272 43.386 H 0.0 **** 0.0
6391 C 77.027 12.899 87.737 C 0.0 **** 0.0
6392 H 76.429 12.096 88.167 H 0.0 **** 0.0
6393 H 77.73 13.269 88.485 H 0.0 **** 0.0
6394 H 76.372 13.711 87.421 H 0.0 **** 0.0
6395 H 77.578 12.521 86.876 H 0.0 **** 0.0
6396 C 40.719 48.891 71.168 C 0.0 **** 0.0
6397 H 41.78 48.666 71.062 H 0.0 **** 0.0
6398 H 40.167 48.434 70.347 H 0.0 **** 0.0
6399 H 40.573 49.971 71.147 H 0.0 **** 0.0
6400 H 40.356 48.494 72.116 H 0.0 **** 0.0
6401 C 19.004 41.318 52.899 C 0.0 **** 0.0
6402 H 19.189 41.221 51.829 H 0.0 **** 0.0
6403 H 18.762 42.355 53.133 H 0.0 **** 0.0
6404 H 19.895 41.018 53.451 H 0.0 **** 0.0
6405 H 18.169 40.677 53.182 H 0.0 **** 0.0
6406 C 20.612 92.592 83.896 C 0.0 **** 0.0
6407 H 21.259 93.463 83.791 H 0.0 **** 0.0
6408 H 21.141 91.704 83.549 H 0.0 **** 0.0
6409 H 19.711 92.735 83.301 H 0.0 **** 0.0
6410 H 20.34 92.466 84.944 H 0.0 **** 0.0
6411 C 91.814 64.301 80.405 C 0.0 **** 0.0
6412 H 91.495 64.426 79.37 H 0.0 **** 0.0
6413 H 91.179 64.902 81.056 H 0.0 **** 0.0
6414 H 92.85 64.626 80.507 H 0.0 **** 0.0
6415 H 91.734 63.251 80.685 H 0.0 **** 0.0
6416 C 80.473 75.461 43.64 C 0.0 **** 0.0
6417 H 80.4 75.537 44.725 H 0.0 **** 0.0
6418 H 81.419 75.89 43.309 H 0.0 **** 0.0
6419 H 79.647 76.004 43.181 H 0.0 **** 0.0
6420 H 80.426 74.412 43.346 H 0.0 **** 0.0
6421 C 1.831 77.589 92.092 C 0.0 **** 0.0
6422 H 1.907 77.558 93.179 H 0.0 **** 0.0
6423 H 2.686 77.075 91.653 H 0.0 **** 0.0
6424 H 1.821 78.627 91.758 H 0.0 **** 0.0
6425 H 0.91 77.098 91.778 H 0.0 **** 0.0
6426 C 3.458 45.261 34.7 C 0.0 **** 0.0
6427 H 3.765 44.795 33.764 H 0.0 **** 0.0
6428 H 2.369 45.261 34.766 H 0.0 **** 0.0
6429 H 3.824 46.287 34.731 H 0.0 **** 0.0
6430 H 3.873 44.701 35.538 H 0.0 **** 0.0
6431 C 35.242 82.008 59.655 C 0.0 **** 0.0
6432 H 35.24 82.312 58.609 H 0.0 **** 0.0
6433 H 34.215 81.947 60.017 H 0.0 **** 0.0
6434 H 35.793 82.74 60.245 H 0.0 **** 0.0
6435 H 35.718 81.032 59.75 H 0.0 **** 0.0
6436 C 3.164 69.367 40.631 C 0.0 **** 0.0
6437 H 3.371 70.322 40.15 H 0.0 **** 0.0
6438 H 3.252 69.478 41.712 H 0.0 **** 0.0
6439 H 3.88 68.622 40.283 H 0.0 **** 0.0
6440 H 2.154 69.045 40.38 H 0.0 **** 0.0
6441 C 92.677 4.856 33.466 C 0.0 **** 0.0
6442 H 92.051 4.955 32.579 H 0.0 **** 0.0
6443 H 93.422 4.077 33.298 H 0.0 **** 0.0
6444 H 92.056 4.588 34.321 H 0.0 **** 0.0
6445 H 93.179 5.803 33.663 H 0.0 **** 0.0
6446 C 5.494 27.129 37.471 C 0.0 **** 0.0
6447 H 5.56 26.939 38.542 H 0.0 **** 0.0
6448 H 4.535 27.595 37.243 H 0.0 **** 0.0
6449 H 5.578 26.186 36.929 H 0.0 **** 0.0
6450 H 6.302 27.794 37.169 H 0.0 **** 0.0
6451 C 65.282 32.039 26.143 C 0.0 **** 0.0
6452 H 65.995 31.887 26.953 H 0.0 **** 0.0
6453 H 65.772 31.851 25.188 H 0.0 **** 0.0
6454 H 64.916 33.065 26.169 H 0.0 **** 0.0
6455 H 64.444 31.351 26.263 H 0.0 **** 0.0
6456 C 56.233 14.253 72.99 C 0.0 **** 0.0
6457 H 56.37 13.436 72.282 H 0.0 **** 0.0
6458 H 55.18 14.324 73.263 H 0.0 **** 0.0
6459 H 56.555 15.188 72.531 H 0.0 **** 0.0
6460 H 56.829 14.063 73.883 H 0.0 **** 0.0
6461 C 34.024 19.232 30.979 C 0.0 **** 0.0
6462 H 34.667 20.086 31.192 H 0.0 **** 0.0
6463 H 34.122 18.957 29.929 H 0.0 **** 0.0
6464 H 32.988 19.495 31.19 H 0.0 **** 0.0
6465 H 34.32 18.39 31.605 H 0.0 **** 0.0
6466 C 70.663 71.732 35.184 C 0.0 **** 0.0
6467 H 70.639 71.441 36.234 H 0.0 **** 0.0
6468 H 70.599 72.818 35.107 H 0.0 **** 0.0
6469 H 69.82 71.28 34.663 H 0.0 **** 0.0
6470 H 71.595 71.39 34.734 H 0.0 **** 0.0
6471 C 7.281 16.652 43.304 C 0.0 **** 0.0
6472 H 6.967 16.939 44.308 H 0.0 **** 0.0
6473 H 6.497 16.909 42.591 H 0.0 **** 0.0
6474 H 7.462 15.578 43.274 H 0.0 **** 0.0
6475 H 8.197 17.183 43.045 H 0.0 **** 0.0
6476 C 20.856 83.41 85.623 C 0.0 **** 0.0
6477 H 21.269 83.065 84.675 H 0.0 **** 0.0
6478 H 20.101 82.704 85.969 H 0.0 **** 0.0
6479 H 20.401 84.391 85.484 H 0.0 **** 0.0
6480 H 21.654 83.481 86.363 H 0.0 **** 0.0
6481 C 92.679 98.046 42.54 C 0.0 **** 0.0
6482 H 92.022 98.699 41.965 H 0.0 **** 0.0
6483 H 93.702 98.417 42.48 H 0.0 **** 0.0
6484 H 92.633 97.036 42.134 H 0.0 **** 0.0
6485 H 92.357 98.034 43.582 H 0.0 **** 0.0
6486 C 71.04 67.793 69.458 C 0.0 **** 0.0
6487 H 70.436 67.501 70.317 H 0.0 **** 0.0
6488 H 71.598 66.928 69.096 H 0.0 **** 0.0
6489 H 71.736 68.578 69.752 H 0.0 **** 0.0
6490 H 70.389 68.162 68.665 H 0.0 **** 0.0
6491 C 71.015 37.545 80.626 C 0.0 **** 0.0
6492 H 71.539 38.369 81.11 H 0.0 **** 0.0
6493 H 71.655 37.11 79.857 H 0.0 **** 0.0
6494 H 70.098 37.916 80.168 H 0.0 **** 0.0
6495 H 70.77 36.785 81.368 H 0.0 **** 0.0
6496 C 98.083 54.458 96.609 C 0.0 **** 0.0
6497 H 97.985 54.536 95.527 H 0.0 **** 0.0
6498 H 98.732 55.254 96.974 H 0.0 **** 0.0
6499 H 98.515 53.491 96.866 H 0.0 **** 0.0
6500 H 97.1 54.55 97.07 H 0.0 **** 0.0
6501 C 33.856 46.957 53.626 C 0.0 **** 0.0
6502 H 34.309 47.889 53.963 H 0.0 **** 0.0
6503 H 32.778 46.999 53.783 H 0.0 **** 0.0
6504 H 34.273 46.125 54.194 H 0.0 **** 0.0
6505 H 34.065 46.814 52.566 H 0.0 **** 0.0
6506 C 8.609 58.577 92.856 C 0.0 **** 0.0
6507 H 7.583 58.273 92.647 H 0.0 **** 0.0
6508 H 8.872 59.424 92.221 H 0.0 **** 0.0
6509 H 9.283 57.746 92.652 H 0.0 **** 0.0
6510 H 8.695 58.867 93.903 H 0.0 **** 0.0
6511 C 50.243 13.901 17.707 C 0.0 **** 0.0
6512 H 49.423 13.182 17.705 H 0.0 **** 0.0
6513 H 50.212 14.489 16.79 H 0.0 **** 0.0
6514 H 51.192 13.369 17.767 H 0.0 **** 0.0
6515 H 50.142 14.563 18.567 H 0.0 **** 0.0
6516 C 54.205 33.624 69.222 C 0.0 **** 0.0
6517 H 53.928 32.777 68.595 H 0.0 **** 0.0
6518 H 54.308 33.291 70.256 H 0.0 **** 0.0
6519 H 53.432 34.389 69.162 H 0.0 **** 0.0
6520 H 55.153 34.037 68.877 H 0.0 **** 0.0
6521 C 44.795 21.163 43.751 C 0.0 **** 0.0
6522 H 44.15 21.175 42.873 H 0.0 **** 0.0
6523 H 45.179 22.167 43.932 H 0.0 **** 0.0
6524 H 45.628 20.481 43.58 H 0.0 **** 0.0
6525 H 44.224 20.83 44.617 H 0.0 **** 0.0
6526 C 20.312 30.837 21.796 C 0.0 **** 0.0
6527 H 21.004 31.195 21.033 H 0.0 **** 0.0
6528 H 19.784 31.685 22.233 H 0.0 **** 0.0
6529 H 20.869 30.315 22.574 H 0.0 **** 0.0
6530 H 19.593 30.155 21.342 H 0.0 **** 0.0
6531 C 41.806 49.776 13.621 C 0.0 **** 0.0
6532 H 41.255 50.691 13.403 H 0.0 **** 0.0
6533 H 41.749 49.105 12.763 H 0.0 **** 0.0
6534 H 41.369 49.289 14.493 H 0.0 **** 0.0
6535 H 42.848 50.02 13.824 H 0.0 **** 0.0
6536 C 90.832 45.318 56.341 C 0.0 **** 0.0
6537 H 91.818 45.429 56.795 H 0.0 **** 0.0
6538 H 90.754 44.334 55.879 H 0.0 **** 0.0
6539 H 90.693 46.089 55.583 H 0.0 **** 0.0
6540 H 90.066 45.421 57.109 H 0.0 **** 0.0
6541 C 1.411 11.938 57.338 C 0.0 **** 0.0
6542 H 1.746 11.219 56.59 H 0.0 **** 0.0
6543 H 1.801 11.653 58.315 H 0.0 **** 0.0
6544 H 0.321 11.947 57.37 H 0.0 **** 0.0
6545 H 1.776 12.931 57.076 H 0.0 **** 0.0
6546 C 33.275 69.151 43.737 C 0.0 **** 0.0
6547 H 33.208 69.256 44.82 H 0.0 **** 0.0
6548 H 34.279 69.419 43.408 H 0.0 **** 0.0
6549 H 32.548 69.811 43.263 H 0.0 **** 0.0
6550 H 33.064 68.118 43.459 H 0.0 **** 0.0
6551 C 18.121 97.705 74.165 C 0.0 **** 0.0
6552 H 18.939 97.827 73.456 H 0.0 **** 0.0
6553 H 17.809 98.683 74.533 H 0.0 **** 0.0
6554 H 18.455 97.092 75.002 H 0.0 **** 0.0
6555 H 17.28 97.218 73.671 H 0.0 **** 0.0
6556 C 97.561 55.67 11.09 C 0.0 **** 0.0
6557 H 98.237 56.293 10.503 H 0.0 **** 0.0
6558 H 97.294 56.191 12.01 H 0.0 **** 0.0
6559 H 98.054 54.729 11.334 H 0.0 **** 0.0
6560 H 96.659 55.469 10.511 H 0.0 **** 0.0
6561 C 40.556 22.622 83.266 C 0.0 **** 0.0
6562 H 40.414 22.903 84.31 H 0.0 **** 0.0
6563 H 40.647 21.539 83.191 H 0.0 **** 0.0
6564 H 41.464 23.09 82.886 H 0.0 **** 0.0
6565 H 39.701 22.958 82.68 H 0.0 **** 0.0
6566 C 75.129 66.086 52.639 C 0.0 **** 0.0
6567 H 74.71 65.677 51.719 H 0.0 **** 0.0
6568 H 75.399 65.27 53.309 H 0.0 **** 0.0
6569 H 74.389 66.723 53.123 H 0.0 **** 0.0
6570 H 76.017 66.673 52.404 H 0.0 **** 0.0
6571 C 45.845 21.037 85.85 C 0.0 **** 0.0
6572 H 46.246 20.869 86.85 H 0.0 **** 0.0
6573 H 44.847 21.469 85.927 H 0.0 **** 0.0
6574 H 45.792 20.089 85.316 H 0.0 **** 0.0
6575 H 46.497 21.723 85.31 H 0.0 **** 0.0
6576 C 29.72 84.623 46.528 C 0.0 **** 0.0
6577 H 28.988 84.401 45.752 H 0.0 **** 0.0
6578 H 30.159 85.603 46.342 H 0.0 **** 0.0
6579 H 30.503 83.865 46.515 H 0.0 **** 0.0
6580 H 29.229 84.622 47.501 H 0.0 **** 0.0
6581 C 9.898 82.127 56.684 C 0.0 **** 0.0
6582 H 10.12 81.286 56.027 H 0.0 **** 0.0
6583 H 9.639 82.999 56.083 H 0.0 **** 0.0
6584 H 10.772 82.351 57.295 H 0.0 **** 0.0
6585 H 9.059 81.87 57.332 H 0.0 **** 0.0
6586 C 83.789 76.43 71.708 C 0.0 **** 0.0
6587 H 84.004 76.824 70.715 H 0.0 **** 0.0
6588 H 84.589 75.753 72.011 H 0.0 **** 0.0
6589 H 82.843 75.889 71.688 H 0.0 **** 0.0
6590 H 83.721 77.254 72.419 H 0.0 **** 0.0
6591 C 42.122 49.257 32.765 C 0.0 **** 0.0
6592 H 42.762 49.864 32.124 H 0.0 **** 0.0
6593 H 41.099 49.631 32.715 H 0.0 **** 0.0
6594 H 42.479 49.314 33.793 H 0.0 **** 0.0
6595 H 42.147 48.221 32.428 H 0.0 **** 0.0
6596 C 18.382 23.012 38.907 C 0.0 **** 0.0
6597 H 19.281 22.845 38.314 H 0.0 **** 0.0
6598 H 18.373 22.326 39.754 H 0.0 **** 0.0
6599 H 17.502 22.837 38.287 H 0.0 **** 0.0
6600 H 18.372 24.04 39.27 H 0.0 **** 0.0
6601 C 32.219 19.319 7.586 C 0.0 **** 0.0
6602 H 31.467 20.0 7.984 H 0.0 **** 0.0
6603 H 31.735 18.404 7.244 H 0.0 **** 0.0
6604 H 32.941 19.079 8.367 H 0.0 **** 0.0
6605 H 32.732 19.793 6.75 H 0.0 **** 0.0
6606 C 49.474 62.464 81.995 C 0.0 **** 0.0
6607 H 49.25 62.521 83.06 H 0.0 **** 0.0
6608 H 48.768 61.79 81.51 H 0.0 **** 0.0
6609 H 50.488 62.088 81.858 H 0.0 **** 0.0
6610 H 49.392 63.457 81.553 H 0.0 **** 0.0
6611 C 65.815 60.815 55.657 C 0.0 **** 0.0
6612 H 65.662 60.601 54.599 H 0.0 **** 0.0
6613 H 66.315 61.778 55.764 H 0.0 **** 0.0
6614 H 66.432 60.034 56.1 H 0.0 **** 0.0
6615 H 64.851 60.848 56.164 H 0.0 **** 0.0
6616 C 52.797 31.803 64.059 C 0.0 **** 0.0
6617 H 52.701 31.587 62.995 H 0.0 **** 0.0
6618 H 52.032 31.257 64.611 H 0.0 **** 0.0
6619 H 52.672 32.873 64.225 H 0.0 **** 0.0
6620 H 53.784 31.494 64.404 H 0.0 **** 0.0
6621 C 22.686 14.588 30.535 C 0.0 **** 0.0
6622 H 22.582 15.174 31.449 H 0.0 **** 0.0
6623 H 22.848 15.258 29.691 H 0.0 **** 0.0
6624 H 21.777 14.009 30.371 H 0.0 **** 0.0
6625 H 23.535 13.912 30.632 H 0.0 **** 0.0
6626 C 21.533 90.282 98.132 C 0.0 **** 0.0
6627 H 21.87 89.451 98.752 H 0.0 **** 0.0
6628 H 21.613 90.006 97.08 H 0.0 **** 0.0
6629 H 22.154 91.156 98.327 H 0.0 **** 0.0
6630 H 20.495 90.514 98.369 H 0.0 **** 0.0
6631 C 38.186 88.61 86.93 C 0.0 **** 0.0
6632 H 37.9 88.61 85.879 H 0.0 **** 0.0
6633 H 38.234 87.583 87.294 H 0.0 **** 0.0
6634 H 37.448 89.167 87.507 H 0.0 **** 0.0
6635 H 39.163 89.08 87.04 H 0.0 **** 0.0
6636 C 37.799 5.324 3.483 C 0.0 **** 0.0
6637 H 37.381 4.948 2.55 H 0.0 **** 0.0
6638 H 38.859 5.54 3.345 H 0.0 **** 0.0
6639 H 37.679 4.574 4.264 H 0.0 **** 0.0
6640 H 37.277 6.236 3.773 H 0.0 **** 0.0
6641 C 66.194 5.431 42.994 C 0.0 **** 0.0
6642 H 66.164 4.351 42.846 H 0.0 **** 0.0
6643 H 66.459 5.919 42.056 H 0.0 **** 0.0
6644 H 66.937 5.673 43.754 H 0.0 **** 0.0
6645 H 65.214 5.779 43.321 H 0.0 **** 0.0
6646 C 98.205 41.784 52.221 C 0.0 **** 0.0
6647 H 98.093 41.123 53.08 H 0.0 **** 0.0
6648 H 98.945 41.369 51.537 H 0.0 **** 0.0
6649 H 98.535 42.767 52.56 H 0.0 **** 0.0
6650 H 97.248 41.879 51.709 H 0.0 **** 0.0
6651 C 32.955 81.506 23.872 C 0.0 **** 0.0
6652 H 32.026 81.88 23.442 H 0.0 **** 0.0
6653 H 33.404 80.781 23.192 H 0.0 **** 0.0
6654 H 32.745 81.026 24.828 H 0.0 **** 0.0
6655 H 33.645 82.336 24.026 H 0.0 **** 0.0
6656 C 59.425 87.431 25.458 C 0.0 **** 0.0
6657 H 59.162 86.885 24.552 H 0.0 **** 0.0
6658 H 59.255 86.795 26.327 H 0.0 **** 0.0
6659 H 58.807 88.325 25.535 H 0.0 **** 0.0
6660 H 60.476 87.718 25.416 H 0.0 **** 0.0
6661 C 22.528 43.781 16.209 C 0.0 **** 0.0
6662 H 22.098 42.781 16.261 H 0.0 **** 0.0
6663 H 23.038 44.005 17.146 H 0.0 **** 0.0
6664 H 21.734 44.51 16.044 H 0.0 **** 0.0
6665 H 23.241 43.828 15.386 H 0.0 **** 0.0
6666 C 41.035 76.792 86.795 C 0.0 **** 0.0
6667 H 40.78 76.242 85.89 H 0.0 **** 0.0
6668 H 40.199 76.75 87.493 H 0.0 **** 0.0
6669 H 41.246 77.831 86.541 H 0.0 **** 0.0
6670 H 41.916 76.344 87.255 H 0.0 **** 0.0
6671 C 45.605 10.209 28.49 C 0.0 **** 0.0
6672 H 45.771 10.262 29.566 H 0.0 **** 0.0
6673 H 45.8 9.195 28.142 H 0.0 **** 0.0
6674 H 46.278 10.902 27.985 H 0.0 **** 0.0
6675 H 44.572 10.478 28.269 H 0.0 **** 0.0
6676 C 78.914 75.369 91.285 C 0.0 **** 0.0
6677 H 79.964 75.45 91.005 H 0.0 **** 0.0
6678 H 78.373 74.822 90.513 H 0.0 **** 0.0
6679 H 78.489 76.367 91.39 H 0.0 **** 0.0
6680 H 78.831 74.838 92.233 H 0.0 **** 0.0
6681 C 84.29 30.714 38.881 C 0.0 **** 0.0
6682 H 83.243 30.511 39.105 H 0.0 **** 0.0
6683 H 84.407 31.763 38.607 H 0.0 **** 0.0
6684 H 84.612 30.083 38.052 H 0.0 **** 0.0
6685 H 84.898 30.497 39.759 H 0.0 **** 0.0
6686 C 38.455 70.456 20.44 C 0.0 **** 0.0
6687 H 37.593 69.829 20.213 H 0.0 **** 0.0
6688 H 38.114 71.451 20.727 H 0.0 **** 0.0
6689 H 39.092 70.53 19.559 H 0.0 **** 0.0
6690 H 39.02 70.014 21.261 H 0.0 **** 0.0
6691 C 27.205 84.016 63.423 C 0.0 **** 0.0
6692 H 27.719 84.581 62.646 H 0.0 **** 0.0
6693 H 27.297 84.539 64.375 H 0.0 **** 0.0
6694 H 27.653 83.025 63.508 H 0.0 **** 0.0
6695 H 26.151 83.916 63.163 H 0.0 **** 0.0
6696 C 35.819 78.263 57.765 C 0.0 **** 0.0
6697 H 35.401 77.651 56.965 H 0.0 **** 0.0
6698 H 36.843 77.947 57.965 H 0.0 **** 0.0
6699 H 35.218 78.143 58.666 H 0.0 **** 0.0
6700 H 35.815 79.31 57.461 H 0.0 **** 0.0
6701 C 6.062 56.428 2.233 C 0.0 **** 0.0
6702 H 5.92 56.751 3.264 H 0.0 **** 0.0
6703 H 6.905 55.739 2.181 H 0.0 **** 0.0
6704 H 6.263 57.296 1.605 H 0.0 **** 0.0
6705 H 5.16 55.927 1.882 H 0.0 **** 0.0
6706 C 5.919 53.265 6.4 C 0.0 **** 0.0
6707 H 5.623 52.221 6.508 H 0.0 **** 0.0
6708 H 5.107 53.909 6.738 H 0.0 **** 0.0
6709 H 6.137 53.473 5.352 H 0.0 **** 0.0
6710 H 6.808 53.454 7.001 H 0.0 **** 0.0
6711 C 5.4 20.628 12.467 C 0.0 **** 0.0
6712 H 6.334 20.065 12.44 H 0.0 **** 0.0
6713 H 4.991 20.604 13.477 H 0.0 **** 0.0
6714 H 4.687 20.18 11.775 H 0.0 **** 0.0
6715 H 5.59 21.66 12.175 H 0.0 **** 0.0
6716 C 27.154 95.719 78.499 C 0.0 **** 0.0
6717 H 27.104 95.764 77.411 H 0.0 **** 0.0
6718 H 27.479 94.724 78.806 H 0.0 **** 0.0
6719 H 26.169 95.925 78.916 H 0.0 **** 0.0
6720 H 27.865 96.461 78.861 H 0.0 **** 0.0
6721 C 61.28 41.256 59.224 C 0.0 **** 0.0
6722 H 61.929 41.798 58.536 H 0.0 **** 0.0
6723 H 61.685 41.323 60.234 H 0.0 **** 0.0
6724 H 61.226 40.21 58.923 H 0.0 **** 0.0
6725 H 60.282 41.693 59.202 H 0.0 **** 0.0
6726 C 14.245 22.066 60.829 C 0.0 **** 0.0
6727 H 14.865 22.958 60.919 H 0.0 **** 0.0
6728 H 14.428 21.592 59.864 H 0.0 **** 0.0
6729 H 13.194 22.345 60.904 H 0.0 **** 0.0
6730 H 14.494 21.369 61.629 H 0.0 **** 0.0
6731 C 73.585 10.838 75.277 C 0.0 **** 0.0
6732 H 74.344 10.93 74.5 H 0.0 **** 0.0
6733 H 74.063 10.856 76.256 H 0.0 **** 0.0
6734 H 73.049 9.898 75.15 H 0.0 **** 0.0
6735 H 72.883 11.669 75.199 H 0.0 **** 0.0
6736 C 65.71 31.327 79.714 C 0.0 **** 0.0
6737 H 66.279 31.13 78.806 H 0.0 **** 0.0
6738 H 66.352 31.819 80.445 H 0.0 **** 0.0
6739 H 65.346 30.385 80.126 H 0.0 **** 0.0
6740 H 64.863 31.972 79.48 H 0.0 **** 0.0
6741 C 42.191 40.251 69.172 C 0.0 **** 0.0
6742 H 41.862 40.488 70.184 H 0.0 **** 0.0
6743 H 42.148 39.172 69.019 H 0.0 **** 0.0
6744 H 43.215 40.598 69.032 H 0.0 **** 0.0
6745 H 41.538 40.746 68.453 H 0.0 **** 0.0
6746 C 70.721 40.886 36.695 C 0.0 **** 0.0
6747 H 70.613 41.367 35.723 H 0.0 **** 0.0
6748 H 69.736 40.628 37.084 H 0.0 **** 0.0
6749 H 71.217 41.568 37.385 H 0.0 **** 0.0
6750 H 71.318 39.98 36.587 H 0.0 **** 0.0
6751 C 32.276 44.72 16.188 C 0.0 **** 0.0
6752 H 32.643 44.594 15.169 H 0.0 **** 0.0
6753 H 32.711 43.951 16.827 H 0.0 **** 0.0
6754 H 31.19 44.629 16.197 H 0.0 **** 0.0
6755 H 32.562 45.704 16.558 H 0.0 **** 0.0
6756 C 83.787 18.24 62.662 C 0.0 **** 0.0
6757 H 83.167 18.6 61.841 H 0.0 **** 0.0
6758 H 84.729 17.861 62.266 H 0.0 **** 0.0
6759 H 83.265 17.44 63.187 H 0.0 **** 0.0
6760 H 83.986 19.059 63.353 H 0.0 **** 0.0
6761 C 13.384 18.082 50.435 C 0.0 **** 0.0
6762 H 13.996 18.133 49.535 H 0.0 **** 0.0
6763 H 12.329 18.106 50.159 H 0.0 **** 0.0
6764 H 13.611 18.933 51.077 H 0.0 **** 0.0
6765 H 13.599 17.156 50.969 H 0.0 **** 0.0
6766 C 21.503 10.525 64.587 C 0.0 **** 0.0
6767 H 22.097 9.648 64.848 H 0.0 **** 0.0
6768 H 21.974 11.047 63.754 H 0.0 **** 0.0
6769 H 21.442 11.192 65.447 H 0.0 **** 0.0
6770 H 20.5 10.211 64.299 H 0.0 **** 0.0
6771 C 6.341 93.183 34.801 C 0.0 **** 0.0
6772 H 6.091 92.429 35.548 H 0.0 **** 0.0
6773 H 7.391 93.087 34.525 H 0.0 **** 0.0
6774 H 6.162 94.176 35.214 H 0.0 **** 0.0
6775 H 5.718 93.039 33.918 H 0.0 **** 0.0
6776 C 34.882 23.533 8.572 C 0.0 **** 0.0
6777 H 35.378 24.07 7.763 H 0.0 **** 0.0
6778 H 35.007 24.085 9.504 H 0.0 **** 0.0
6779 H 35.325 22.542 8.674 H 0.0 **** 0.0
6780 H 33.821 23.436 8.346 H 0.0 **** 0.0
6781 C 59.864 70.693 75.687 C 0.0 **** 0.0
6782 H 60.509 71.098 76.467 H 0.0 **** 0.0
6783 H 58.848 71.063 75.828 H 0.0 **** 0.0
6784 H 59.866 69.604 75.744 H 0.0 **** 0.0
6785 H 60.234 71.007 74.711 H 0.0 **** 0.0
6786 C 50.872 26.083 70.557 C 0.0 **** 0.0
6787 H 51.516 25.76 69.739 H 0.0 **** 0.0
6788 H 51.413 26.0 71.5 H 0.0 **** 0.0
6789 H 49.983 25.453 70.59 H 0.0 **** 0.0
6790 H 50.576 27.12 70.398 H 0.0 **** 0.0
6791 C 23.843 79.56 33.698 C 0.0 **** 0.0
6792 H 23.783 79.111 32.706 H 0.0 **** 0.0
6793 H 22.842 79.836 34.032 H 0.0 **** 0.0
6794 H 24.471 80.45 33.656 H 0.0 **** 0.0
6795 H 24.275 78.842 34.395 H 0.0 **** 0.0
6796 C 53.425 93.548 59.952 C 0.0 **** 0.0
6797 H 52.43 93.534 59.508 H 0.0 **** 0.0
6798 H 54.107 92.966 59.332 H 0.0 **** 0.0
6799 H 53.382 93.115 60.951 H 0.0 **** 0.0
6800 H 53.779 94.576 60.016 H 0.0 **** 0.0
6801 C 33.152 79.264 2.499 C 0.0 **** 0.0
6802 H 34.074 79.023 3.029 H 0.0 **** 0.0
6803 H 33.313 79.161 1.426 H 0.0 **** 0.0
6804 H 32.861 80.29 2.726 H 0.0 **** 0.0
6805 H 32.362 78.584 2.816 H 0.0 **** 0.0
6806 C 8.306 21.668 74.274 C 0.0 **** 0.0
6807 H 7.852 21.587 73.286 H 0.0 **** 0.0
6808 H 8.431 20.671 74.698 H 0.0 **** 0.0
6809 H 7.661 22.261 74.922 H 0.0 **** 0.0
6810 H 9.279 22.151 74.188 H 0.0 **** 0.0
6811 C 83.33 12.571 40.644 C 0.0 **** 0.0
6812 H 83.297 12.58 41.733 H 0.0 **** 0.0
6813 H 82.356 12.273 40.254 H 0.0 **** 0.0
6814 H 84.088 11.863 40.309 H 0.0 **** 0.0
6815 H 83.577 13.568 40.28 H 0.0 **** 0.0
6816 C 95.525 75.382 97.339 C 0.0 **** 0.0
6817 H 94.529 74.943 97.39 H 0.0 **** 0.0
6818 H 95.452 76.463 97.46 H 0.0 **** 0.0
6819 H 95.973 75.154 96.372 H 0.0 **** 0.0
6820 H 96.146 74.968 98.134 H 0.0 **** 0.0
6821 C 33.106 53.115 68.835 C 0.0 **** 0.0
6822 H 33.301 53.179 69.906 H 0.0 **** 0.0
6823 H 33.797 52.404 68.382 H 0.0 **** 0.0
6824 H 33.246 54.097 68.382 H 0.0 **** 0.0
6825 H 32.081 52.783 68.671 H 0.0 **** 0.0
6826 C 75.363 54.306 70.698 C 0.0 **** 0.0
6827 H 75.841 54.664 71.61 H 0.0 **** 0.0
6828 H 74.287 54.229 70.859 H 0.0 **** 0.0
6829 H 75.763 53.325 70.439 H 0.0 **** 0.0
6830 H 75.561 55.005 69.886 H 0.0 **** 0.0
6831 C 79.231 42.037 66.96 C 0.0 **** 0.0
6832 H 78.962 43.091 67.027 H 0.0 **** 0.0
6833 H 79.265 41.737 65.912 H 0.0 **** 0.0
6834 H 78.487 41.438 67.486 H 0.0 **** 0.0
6835 H 80.209 41.882 67.415 H 0.0 **** 0.0
6836 C 66.815 19.191 84.348 C 0.0 **** 0.0
6837 H 65.936 19.834 84.305 H 0.0 **** 0.0
6838 H 66.758 18.557 85.233 H 0.0 **** 0.0
6839 H 67.713 19.807 84.399 H 0.0 **** 0.0
6840 H 66.853 18.567 83.455 H 0.0 **** 0.0
6841 C 58.553 31.618 47.527 C 0.0 **** 0.0
6842 H 58.439 31.809 48.594 H 0.0 **** 0.0
6843 H 59.59 31.357 47.314 H 0.0 **** 0.0
6844 H 58.28 32.511 46.966 H 0.0 **** 0.0
6845 H 57.904 30.793 47.235 H 0.0 **** 0.0
6846 C 78.798 72.372 47.204 C 0.0 **** 0.0
6847 H 78.141 72.033 46.403 H 0.0 **** 0.0
6848 H 79.026 73.429 47.063 H 0.0 **** 0.0
6849 H 79.722 71.794 47.184 H 0.0 **** 0.0
6850 H 78.302 72.232 48.164 H 0.0 **** 0.0
6851 C 86.883 38.539 75.142 C 0.0 **** 0.0
6852 H 87.667 39.268 74.936 H 0.0 **** 0.0
6853 H 86.334 38.839 76.034 H 0.0 **** 0.0
6854 H 87.332 37.559 75.303 H 0.0 **** 0.0
6855 H 86.201 38.49 74.293 H 0.0 **** 0.0
6856 C 8.3 95.669 33.939 C 0.0 **** 0.0
6857 H 7.951 96.702 33.945 H 0.0 **** 0.0
6858 H 7.788 95.117 33.151 H 0.0 **** 0.0
6859 H 8.087 95.208 34.904 H 0.0 **** 0.0
6860 H 9.375 95.651 33.758 H 0.0 **** 0.0
6861 C 21.668 95.62 4.295 C 0.0 **** 0.0
6862 H 21.644 95.551 3.207 H 0.0 **** 0.0
6863 H 21.625 96.668 4.592 H 0.0 **** 0.0
6864 H 22.589 95.173 4.667 H 0.0 **** 0.0
6865 H 20.812 95.089 4.711 H 0.0 **** 0.0
6866 C 53.276 39.341 52.351 C 0.0 **** 0.0
6867 H 52.45 39.541 53.034 H 0.0 **** 0.0
6868 H 53.738 40.284 52.055 H 0.0 **** 0.0
6869 H 52.901 38.826 51.467 H 0.0 **** 0.0
6870 H 54.016 38.715 52.85 H 0.0 **** 0.0
6871 C 53.686 26.938 47.632 C 0.0 **** 0.0
6872 H 52.852 26.83 46.939 H 0.0 **** 0.0
6873 H 53.35 27.468 48.524 H 0.0 **** 0.0
6874 H 54.486 27.502 47.153 H 0.0 **** 0.0
6875 H 54.054 25.951 47.913 H 0.0 **** 0.0
6876 C 27.382 71.35 13.958 C 0.0 **** 0.0
6877 H 27.71 70.869 13.037 H 0.0 **** 0.0
6878 H 28.192 71.96 14.357 H 0.0 **** 0.0
6879 H 27.106 70.589 14.687 H 0.0 **** 0.0
6880 H 26.519 71.983 13.75 H 0.0 **** 0.0
6881 C 97.653 1.538 14.2 C 0.0 **** 0.0
6882 H 97.938 1.365 13.163 H 0.0 **** 0.0
6883 H 97.327 0.6 14.649 H 0.0 **** 0.0
6884 H 96.837 2.261 14.236 H 0.0 **** 0.0
6885 H 98.508 1.928 14.752 H 0.0 **** 0.0
6886 C 79.861 61.399 84.748 C 0.0 **** 0.0
6887 H 79.533 60.71 83.97 H 0.0 **** 0.0
6888 H 80.594 62.092 84.335 H 0.0 **** 0.0
6889 H 80.313 60.835 85.565 H 0.0 **** 0.0
6890 H 79.004 61.957 85.124 H 0.0 **** 0.0
6891 C 77.851 76.566 73.182 C 0.0 **** 0.0
6892 H 77.805 76.613 72.094 H 0.0 **** 0.0
6893 H 76.846 76.663 73.592 H 0.0 **** 0.0
6894 H 78.475 77.379 73.554 H 0.0 **** 0.0
6895 H 78.279 75.611 73.487 H 0.0 **** 0.0
6896 C 24.596 28.1 62.449 C 0.0 **** 0.0
6897 H 25.487 27.626 62.037 H 0.0 **** 0.0
6898 H 24.026 28.564 61.645 H 0.0 **** 0.0
6899 H 24.892 28.861 63.171 H 0.0 **** 0.0
6900 H 23.982 27.348 62.945 H 0.0 **** 0.0
6901 C 0.961 30.818 20.271 C 0.0 **** 0.0
6902 H 1.501 30.036 20.804 H 0.0 **** 0.0
6903 H 0.797 31.665 20.937 H 0.0 **** 0.0
6904 H -0.0 30.429 19.933 H 0.0 **** 0.0
6905 H 1.545 31.14 19.409 H 0.0 **** 0.0
6906 C 27.566 68.12 46.036 C 0.0 **** 0.0
6907 H 27.866 68.642 45.127 H 0.0 **** 0.0
6908 H 26.505 68.293 46.22 H 0.0 **** 0.0
6909 H 28.147 68.494 46.879 H 0.0 **** 0.0
6910 H 27.745 67.052 45.916 H 0.0 **** 0.0
6911 C 81.997 26.776 42.425 C 0.0 **** 0.0
6912 H 81.889 26.726 43.509 H 0.0 **** 0.0
6913 H 81.318 27.53 42.027 H 0.0 **** 0.0
6914 H 81.758 25.805 41.992 H 0.0 **** 0.0
6915 H 83.024 27.042 42.175 H 0.0 **** 0.0
6916 C 78.453 94.403 64.363 C 0.0 **** 0.0
6917 H 79.318 93.767 64.553 H 0.0 **** 0.0
6918 H 78.545 95.323 64.94 H 0.0 **** 0.0
6919 H 77.545 93.878 64.659 H 0.0 **** 0.0
6920 H 78.404 94.643 63.301 H 0.0 **** 0.0
6921 C 96.049 76.647 62.269 C 0.0 **** 0.0
6922 H 95.651 76.731 61.258 H 0.0 **** 0.0
6923 H 96.43 75.638 62.427 H 0.0 **** 0.0
6924 H 95.256 76.854 62.989 H 0.0 **** 0.0
6925 H 96.857 77.367 62.403 H 0.0 **** 0.0
6926 C 26.344 8.969 60.261 C 0.0 **** 0.0
6927 H 26.238 9.792 60.969 H 0.0 **** 0.0
6928 H 26.886 9.315 59.381 H 0.0 **** 0.0
6929 H 25.356 8.616 59.965 H 0.0 **** 0.0
6930 H 26.896 8.155 60.731 H 0.0 **** 0.0
6931 C 36.131 56.488 88.383 C 0.0 **** 0.0
6932 H 35.887 56.424 89.444 H 0.0 **** 0.0
6933 H 36.902 55.755 88.143 H 0.0 **** 0.0
6934 H 36.496 57.489 88.154 H 0.0 **** 0.0
6935 H 35.238 56.283 87.793 H 0.0 **** 0.0
6936 C 39.38 11.009 31.782 C 0.0 **** 0.0
6937 H 38.386 10.563 31.814 H 0.0 **** 0.0
6938 H 39.341 11.939 31.214 H 0.0 **** 0.0
6939 H 40.072 10.318 31.301 H 0.0 **** 0.0
6940 H 39.718 11.216 32.797 H 0.0 **** 0.0
6941 C 44.176 1.014 89.348 C 0.0 **** 0.0
6942 H 44.337 1.048 90.425 H 0.0 **** 0.0
6943 H 43.361 1.688 89.081 H 0.0 **** 0.0
6944 H 43.918 -0.003 89.051 H 0.0 **** 0.0
6945 H 45.086 1.323 88.834 H 0.0 **** 0.0
6946 C 56.475 32.167 59.472 C 0.0 **** 0.0
6947 H 57.226 31.379 59.417 H 0.0 **** 0.0
6948 H 55.928 32.214 58.531 H 0.0 **** 0.0
6949 H 56.965 33.123 59.656 H 0.0 **** 0.0
6950 H 55.782 31.951 60.286 H 0.0 **** 0.0
6951 C 94.516 41.662 60.279 C 0.0 **** 0.0
6952 H 95.474 42.174 60.377 H 0.0 **** 0.0
6953 H 94.466 41.17 59.308 H 0.0 **** 0.0
6954 H 93.707 42.388 60.362 H 0.0 **** 0.0
6955 H 94.42 40.918 61.07 H 0.0 **** 0.0
6956 C 38.656 60.726 59.722 C 0.0 **** 0.0
6957 H 38.162 60.091 58.986 H 0.0 **** 0.0
6958 H 39.289 61.451 59.209 H 0.0 **** 0.0
6959 H 39.269 60.11 60.38 H 0.0 **** 0.0
6960 H 37.905 61.251 60.311 H 0.0 **** 0.0
6961 C 86.664 84.447 90.915 C 0.0 **** 0.0
6962 H 86.527 84.561 89.84 H 0.0 **** 0.0
6963 H 87.508 83.783 91.105 H 0.0 **** 0.0
6964 H 85.761 84.023 91.354 H 0.0 **** 0.0
6965 H 86.861 85.422 91.361 H 0.0 **** 0.0
6966 C 9.229 58.995 89.328 C 0.0 **** 0.0
6967 H 9.003 58.336 90.166 H 0.0 **** 0.0
6968 H 9.713 58.423 88.536 H 0.0 **** 0.0
6969 H 9.895 59.791 89.662 H 0.0 **** 0.0
6970 H 8.305 59.431 88.949 H 0.0 **** 0.0
6971 C 81.697 82.878 83.607 C 0.0 **** 0.0
6972 H 82.686 82.47 83.817 H 0.0 **** 0.0
6973 H 81.116 82.15 83.041 H 0.0 **** 0.0
6974 H 81.799 83.794 83.025 H 0.0 **** 0.0
6975 H 81.188 83.098 84.546 H 0.0 **** 0.0
6976 C 27.919 91.653 45.504 C 0.0 **** 0.0
6977 H 27.324 91.183 44.721 H 0.0 **** 0.0
6978 H 27.362 91.638 46.441 H 0.0 **** 0.0
6979 H 28.136 92.684 45.226 H 0.0 **** 0.0
6980 H 28.853 91.105 45.628 H 0.0 **** 0.0
6981 C 39.356 93.381 94.038 C 0.0 **** 0.0
6982 H 38.484 92.965 94.543 H 0.0 **** 0.0
6983 H 39.537 92.831 93.114 H 0.0 **** 0.0
6984 H 40.227 93.295 94.688 H 0.0 **** 0.0
6985 H 39.177 94.431 93.807 H 0.0 **** 0.0
6986 C 52.741 9.502 7.778 C 0.0 **** 0.0
6987 H 52.127 9.282 8.651 H 0.0 **** 0.0
6988 H 52.155 9.342 6.873 H 0.0 **** 0.0
6989 H 53.61 8.843 7.77 H 0.0 **** 0.0
6990 H 53.072 10.54 7.818 H 0.0 **** 0.0
6991 C 83.027 25.784 60.935 C 0.0 **** 0.0
6992 H 83.657 24.983 60.547 H 0.0 **** 0.0
6993 H 83.285 25.976 61.977 H 0.0 **** 0.0
6994 H 81.981 25.487 60.868 H 0.0 **** 0.0
6995 H 83.187 26.688 60.348 H 0.0 **** 0.0
6996 C 89.395 13.183 94.51 C 0.0 **** 0.0
6997 H 90.407 13.587 94.472 H 0.0 **** 0.0
6998 H 88.843 13.663 95.318 H 0.0 **** 0.0
6999 H 89.44 12.109 94.687 H 0.0 **** 0.0
7000 H 88.893 13.375 93.562 H 0.0 **** 0.0
7001 C 42.065 40.509 75.094 C 0.0 **** 0.0
7002 H 42.23 40.361 76.161 H 0.0 **** 0.0
7003 H 41.346 41.316 74.946 H 0.0 **** 0.0
7004 H 41.676 39.591 74.655 H 0.0 **** 0.0
7005 H 43.008 40.77 74.614 H 0.0 **** 0.0
7006 C 66.239 93.321 49.989 C 0.0 **** 0.0
7007 H 65.889 94.131 49.351 H 0.0 **** 0.0
7008 H 66.898 92.666 49.418 H 0.0 **** 0.0
7009 H 65.385 92.749 50.353 H 0.0 **** 0.0
7010 H 66.785 93.736 50.837 H 0.0 **** 0.0
7011 C 42.111 79.257 83.28 C 0.0 **** 0.0
7012 H 41.901 80.092 82.611 H 0.0 **** 0.0
7013 H 42.223 79.629 84.299 H 0.0 **** 0.0
7014 H 43.032 78.765 82.969 H 0.0 **** 0.0
7015 H 41.287 78.545 83.241 H 0.0 **** 0.0
7016 C 65.922 72.953 94.346 C 0.0 **** 0.0
7017 H 66.812 72.807 93.734 H 0.0 **** 0.0
7018 H 66.07 73.81 95.003 H 0.0 **** 0.0
7019 H 65.744 72.06 94.946 H 0.0 **** 0.0
7020 H 65.063 73.133 93.7 H 0.0 **** 0.0
7021 C 79.44 3.233 86.19 C 0.0 **** 0.0
7022 H 79.079 2.49 86.901 H 0.0 **** 0.0
7023 H 80.526 3.304 86.258 H 0.0 **** 0.0
7024 H 78.997 4.202 86.421 H 0.0 **** 0.0
7025 H 79.158 2.936 85.179 H 0.0 **** 0.0
7026 C 90.814 73.361 87.105 C 0.0 **** 0.0
7027 H 90.411 73.527 86.106 H 0.0 **** 0.0
7028 H 91.262 72.368 87.155 H 0.0 **** 0.0
7029 H 90.011 73.435 87.838 H 0.0 **** 0.0
7030 H 91.573 74.114 87.319 H 0.0 **** 0.0
7031 C 33.908 25.988 59.693 C 0.0 **** 0.0
7032 H 33.627 27.037 59.605 H 0.0 **** 0.0
7033 H 34.883 25.833 59.23 H 0.0 **** 0.0
7034 H 33.164 25.37 59.191 H 0.0 **** 0.0
7035 H 33.958 25.713 60.746 H 0.0 **** 0.0
7036 C 5.504 94.943 98.046 C 0.0 **** 0.0
7037 H 4.825 94.196 97.634 H 0.0 **** 0.0
7038 H 4.966 95.568 98.759 H 0.0 **** 0.0
7039 H 5.893 95.564 97.239 H 0.0 **** 0.0
7040 H 6.33 94.444 98.551 H 0.0 **** 0.0
7041 C 28.722 88.776 84.419 C 0.0 **** 0.0
7042 H 27.816 88.187 84.275 H 0.0 **** 0.0
7043 H 29.569 88.107 84.574 H 0.0 **** 0.0
7044 H 28.602 89.419 85.291 H 0.0 **** 0.0
7045 H 28.901 89.39 83.537 H 0.0 **** 0.0
7046 C 24.909 67.469 63.321 C 0.0 **** 0.0
7047 H 25.022 68.254 64.069 H 0.0 **** 0.0
7048 H 25.368 67.791 62.386 H 0.0 **** 0.0
7049 H 23.85 67.272 63.158 H 0.0 **** 0.0
7050 H 25.398 66.56 63.672 H 0.0 **** 0.0
7051 C 95.128 47.796 42.38 C 0.0 **** 0.0
7052 H 95.586 47.693 41.396 H 0.0 **** 0.0
7053 H 95.008 48.854 42.615 H 0.0 **** 0.0
7054 H 95.768 47.328 43.128 H 0.0 **** 0.0
7055 H 94.153 47.31 42.38 H 0.0 **** 0.0
7056 C 40.875 35.11 80.101 C 0.0 **** 0.0
7057 H 41.312 35.473 81.031 H 0.0 **** 0.0
7058 H 41.443 35.502 79.257 H 0.0 **** 0.0
7059 H 39.84 35.446 80.031 H 0.0 **** 0.0
7060 H 40.906 34.021 80.086 H 0.0 **** 0.0
7061 C 69.195 95.775 8.299 C 0.0 **** 0.0
7062 H 68.855 94.827 8.718 H 0.0 **** 0.0
7063 H 70.255 95.907 8.515 H 0.0 **** 0.0
7064 H 68.628 96.592 8.745 H 0.0 **** 0.0
7065 H 69.041 95.771 7.22 H 0.0 **** 0.0
7066 C 36.467 86.3 66.367 C 0.0 **** 0.0
7067 H 36.351 86.159 67.441 H 0.0 **** 0.0
7068 H 37.099 85.51 65.963 H 0.0 **** 0.0
7069 H 36.929 87.269 66.177 H 0.0 **** 0.0
7070 H 35.488 86.264 65.888 H 0.0 **** 0.0
7071 C 67.261 89.425 97.209 C 0.0 **** 0.0
7072 H 67.131 89.156 98.258 H 0.0 **** 0.0
7073 H 66.649 88.772 96.588 H 0.0 **** 0.0
7074 H 68.31 89.313 96.933 H 0.0 **** 0.0
7075 H 66.955 90.461 97.06 H 0.0 **** 0.0
7076 C 19.416 56.121 92.302 C 0.0 **** 0.0
7077 H 19.255 55.611 91.352 H 0.0 **** 0.0
7078 H 19.743 55.399 93.051 H 0.0 **** 0.0
7079 H 18.485 56.585 92.627 H 0.0 **** 0.0
7080 H 20.18 56.888 92.178 H 0.0 **** 0.0
7081 C 80.586 67.689 64.419 C 0.0 **** 0.0
7082 H 79.889 67.418 65.212 H 0.0 **** 0.0
7083 H 81.472 67.056 64.483 H 0.0 **** 0.0
7084 H 80.877 68.733 64.531 H 0.0 **** 0.0
7085 H 80.108 67.547 63.45 H 0.0 **** 0.0
7086 C 97.358 87.533 82.077 C 0.0 **** 0.0
7087 H 98.179 86.818 82.039 H 0.0 **** 0.0
7088 H 97.612 88.411 81.483 H 0.0 **** 0.0
7089 H 97.184 87.832 83.111 H 0.0 **** 0.0
7090 H 96.455 87.072 81.676 H 0.0 **** 0.0
7091 C 35.944 82.421 7.164 C 0.0 **** 0.0
7092 H 34.855 82.467 7.18 H 0.0 **** 0.0
7093 H 36.267 81.395 7.345 H 0.0 **** 0.0
7094 H 36.346 83.071 7.941 H 0.0 **** 0.0
7095 H 36.307 82.75 6.191 H 0.0 **** 0.0
7096 C 82.539 12.675 17.225 C 0.0 **** 0.0
7097 H 81.5 12.359 17.138 H 0.0 **** 0.0
7098 H 83.127 12.21 16.434 H 0.0 **** 0.0
7099 H 82.931 12.371 18.196 H 0.0 **** 0.0
7100 H 82.597 13.76 17.133 H 0.0 **** 0.0
7101 C 19.395 0.946 58.023 C 0.0 **** 0.0
7102 H 19.638 0.522 57.048 H 0.0 **** 0.0
7103 H 19.786 0.298 58.808 H 0.0 **** 0.0
7104 H 18.313 1.028 58.123 H 0.0 **** 0.0
7105 H 19.844 1.935 58.111 H 0.0 **** 0.0
7106 C 25.016 61.369 47.926 C 0.0 **** 0.0
7107 H 25.802 60.661 48.193 H 0.0 **** 0.0
7108 H 24.671 61.883 48.823 H 0.0 **** 0.0
7109 H 24.184 60.832 47.471 H 0.0 **** 0.0
7110 H 25.409 62.098 47.218 H 0.0 **** 0.0
7111 C 87.09 27.343 4.44 C 0.0 **** 0.0
7112 H 86.196 27.834 4.056 H 0.0 **** 0.0
7113 H 87.796 28.097 4.789 H 0.0 **** 0.0
7114 H 87.549 26.753 3.647 H 0.0 **** 0.0
7115 H 86.817 26.689 5.268 H 0.0 **** 0.0
7116 C 35.378 18.656 85.568 C 0.0 **** 0.0
7117 H 35.629 18.846 86.612 H 0.0 **** 0.0
7118 H 36.219 18.938 84.935 H 0.0 **** 0.0
7119 H 34.503 19.245 85.293 H 0.0 **** 0.0
7120 H 35.16 17.597 85.434 H 0.0 **** 0.0
7121 C 76.711 14.773 57.931 C 0.0 **** 0.0
7122 H 76.552 14.339 58.918 H 0.0 **** 0.0
7123 H 77.558 14.283 57.451 H 0.0 **** 0.0
7124 H 76.916 15.839 58.032 H 0.0 **** 0.0
7125 H 75.817 14.632 57.324 H 0.0 **** 0.0
7126 C 72.369 3.598 63.399 C 0.0 **** 0.0
7127 H 72.168 4.607 63.761 H 0.0 **** 0.0
7128 H 71.464 3.187 62.95 H 0.0 **** 0.0
7129 H 72.68 2.969 64.233 H 0.0 **** 0.0
7130 H 73.162 3.632 62.653 H 0.0 **** 0.0
7131 C 51.532 8.438 89.104 C 0.0 **** 0.0
7132 H 51.257 8.147 88.091 H 0.0 **** 0.0
7133 H 52.523 8.893 89.096 H 0.0 **** 0.0
7134 H 51.541 7.556 89.745 H 0.0 **** 0.0
7135 H 50.805 9.156 89.485 H 0.0 **** 0.0
7136 C 25.725 78.386 28.919 C 0.0 **** 0.0
7137 H 25.667 79.394 29.329 H 0.0 **** 0.0
7138 H 25.485 78.412 27.856 H 0.0 **** 0.0
7139 H 25.013 77.742 29.437 H 0.0 **** 0.0
7140 H 26.733 77.995 29.055 H 0.0 **** 0.0
7141 C 62.422 24.655 73.01 C 0.0 **** 0.0
7142 H 61.473 24.406 72.533 H 0.0 **** 0.0
7143 H 63.161 23.892 72.766 H 0.0 **** 0.0
7144 H 62.285 24.698 74.09 H 0.0 **** 0.0
7145 H 62.766 25.624 72.648 H 0.0 **** 0.0
7146 C 97.345 53.772 84.338 C 0.0 **** 0.0
7147 H 97.539 54.367 85.23 H 0.0 **** 0.0
7148 H 96.761 54.359 83.63 H 0.0 **** 0.0
7149 H 96.789 52.876 84.614 H 0.0 **** 0.0
7150 H 98.291 53.485 83.88 H 0.0 **** 0.0
7151 C 62.724 83.246 90.998 C 0.0 **** 0.0
7152 H 62.746 83.867 90.102 H 0.0 **** 0.0
7153 H 62.086 82.38 90.823 H 0.0 **** 0.0
7154 H 62.329 83.826 91.832 H 0.0 **** 0.0
7155 H 63.734 82.912 91.233 H 0.0 **** 0.0
7156 C 87.583 77.939 72.868 C 0.0 **** 0.0
7157 H 86.655 77.622 73.345 H 0.0 **** 0.0
7158 H 87.886 77.194 72.132 H 0.0 **** 0.0
7159 H 88.362 78.043 73.622 H 0.0 **** 0.0
7160 H 87.426 78.897 72.372 H 0.0 **** 0.0
7161 C 26.723 83.653 86.581 C 0.0 **** 0.0
7162 H 26.056 83.978 87.379 H 0.0 **** 0.0
7163 H 27.129 84.527 86.07 H 0.0 **** 0.0
7164 H 26.168 83.041 85.87 H 0.0 **** 0.0
7165 H 27.539 83.068 87.005 H 0.0 **** 0.0
7166 C 19.143 94.589 49.378 C 0.0 **** 0.0
7167 H 19.632 95.184 48.607 H 0.0 **** 0.0
7168 H 19.807 93.781 49.688 H 0.0 **** 0.0
7169 H 18.219 94.168 48.981 H 0.0 **** 0.0
7170 H 18.915 95.222 50.235 H 0.0 **** 0.0
7171 C 96.276 18.974 69.329 C 0.0 **** 0.0
7172 H 95.978 18.962 70.377 H 0.0 **** 0.0
7173 H 95.898 18.079 68.834 H 0.0 **** 0.0
7174 H 97.363 18.995 69.261 H 0.0 **** 0.0
7175 H 95.864 19.859 68.844 H 0.0 **** 0.0
7176 C 25.331 57.116 71.668 C 0.0 **** 0.0
7177 H 24.974 56.22 71.162 H 0.0 **** 0.0
7178 H 26.247 57.463 71.189 H 0.0 **** 0.0
7179 H 25.533 56.887 72.714 H 0.0 **** 0.0
7180 H 24.571 57.896 71.607 H 0.0 **** 0.0
7181 C 29.825 12.762 4.213 C 0.0 **** 0.0
7182 H 29.044 12.062 4.51 H 0.0 **** 0.0
7183 H 30.363 13.102 5.098 H 0.0 **** 0.0
7184 H 29.375 13.617 3.71 H 0.0 **** 0.0
7185 H 30.519 12.264 3.535 H 0.0 **** 0.0
7186 C 73.327 87.911 95.8 C 0.0 **** 0.0
7187 H 72.482 87.876 96.487 H 0.0 **** 0.0
7188 H 74.048 88.65 96.149 H 0.0 **** 0.0
7189 H 72.976 88.186 94.806 H 0.0 **** 0.0
7190 H 73.802 86.931 95.759 H 0.0 **** 0.0
7191 C 26.578 74.481 65.424 C 0.0 **** 0.0
7192 H 26.023 75.218 66.004 H 0.0 **** 0.0
7193 H 26.028 73.54 65.411 H 0.0 **** 0.0
7194 H 27.557 74.324 65.878 H 0.0 **** 0.0
7195 H 26.705 74.843 64.403 H 0.0 **** 0.0
7196 C 96.618 13.046 40.069 C 0.0 **** 0.0
7197 H 96.495 12.907 41.143 H 0.0 **** 0.0
7198 H 97.347 12.328 39.691 H 0.0 **** 0.0
7199 H 96.97 14.059 39.872 H 0.0 **** 0.0
7200 H 95.662 12.89 39.57 H 0.0 **** 0.0
7201 C 60.184 34.383 75.985 C 0.0 **** 0.0
7202 H 60.054 34.164 74.925 H 0.0 **** 0.0
7203 H 60.634 35.369 76.1 H 0.0 **** 0.0
7204 H 60.835 33.632 76.434 H 0.0 **** 0.0
7205 H 59.213 34.365 76.481 H 0.0 **** 0.0
7206 C 85.854 58.14 20.544 C 0.0 **** 0.0
7207 H 85.074 58.266 19.793 H 0.0 **** 0.0
7208 H 86.471 59.038 20.58 H 0.0 **** 0.0
7209 H 86.474 57.283 20.283 H 0.0 **** 0.0
7210 H 85.396 57.974 21.519 H 0.0 **** 0.0
7211 C 29.13 50.804 4.67 C 0.0 **** 0.0
7212 H 28.663 50.097 3.985 H 0.0 **** 0.0
7213 H 28.547 51.725 4.694 H 0.0 **** 0.0
7214 H 30.143 51.023 4.332 H 0.0 **** 0.0
7215 H 29.166 50.371 5.67 H 0.0 **** 0.0
7216 C 91.488 42.365 63.609 C 0.0 **** 0.0
7217 H 92.477 42.774 63.403 H 0.0 **** 0.0
7218 H 91.132 41.817 62.736 H 0.0 **** 0.0
7219 H 90.798 43.178 63.834 H 0.0 **** 0.0
7220 H 91.545 41.69 64.463 H 0.0 **** 0.0
7221 C 14.083 43.104 29.57 C 0.0 **** 0.0
7222 H 14.384 43.378 30.582 H 0.0 **** 0.0
7223 H 13.788 44.0 29.024 H 0.0 **** 0.0
7224 H 13.242 42.413 29.616 H 0.0 **** 0.0
7225 H 14.919 42.626 29.06 H 0.0 **** 0.0
7226 C 19.996 89.76 30.156 C 0.0 **** 0.0
7227 H 18.93 89.54 30.226 H 0.0 **** 0.0
7228 H 20.429 89.199 29.327 H 0.0 **** 0.0
7229 H 20.487 89.473 31.086 H 0.0 **** 0.0
7230 H 20.135 90.827 29.985 H 0.0 **** 0.0
7231 C 97.623 75.623 30.843 C 0.0 **** 0.0
7232 H 98.649 75.634 31.21 H 0.0 **** 0.0
7233 H 97.265 76.648 30.736 H 0.0 **** 0.0
7234 H 96.99 75.09 31.552 H 0.0 **** 0.0
7235 H 97.588 75.122 29.876 H 0.0 **** 0.0
7236 C 64.8 26.134 69.658 C 0.0 **** 0.0
7237 H 65.572 26.594 69.042 H 0.0 **** 0.0
7238 H 65.053 25.089 69.837 H 0.0 **** 0.0
7239 H 63.841 26.192 69.142 H 0.0 **** 0.0
7240 H 64.733 26.66 70.61 H 0.0 **** 0.0
7241 C 80.954 88.39 60.141 C 0.0 **** 0.0
7242 H 80.909 88.626 61.205 H 0.0 **** 0.0
7243 H 81.206 87.338 60.013 H 0.0 **** 0.0
7244 H 81.715 89.008 59.665 H 0.0 **** 0.0
7245 H 79.985 88.591 59.684 H 0.0 **** 0.0
7246 C 18.704 20.639 80.805 C 0.0 **** 0.0
7247 H 19.41 20.769 81.625 H 0.0 **** 0.0
7248 H 19.247 20.612 79.86 H 0.0 **** 0.0
7249 H 18.0 21.471 80.796 H 0.0 **** 0.0
7250 H 18.16 19.704 80.938 H 0.0 **** 0.0
7251 C 12.101 61.052 29.653 C 0.0 **** 0.0
7252 H 11.152 61.072 30.19 H 0.0 **** 0.0
7253 H 12.921 61.172 30.361 H 0.0 **** 0.0
7254 H 12.125 61.865 28.927 H 0.0 **** 0.0
7255 H 12.204 60.098 29.135 H 0.0 **** 0.0
7256 C 86.8 79.191 44.352 C 0.0 **** 0.0
7257 H 87.693 78.638 44.643 H 0.0 **** 0.0
7258 H 86.213 79.426 45.24 H 0.0 **** 0.0
7259 H 86.202 78.584 43.672 H 0.0 **** 0.0
7260 H 87.091 80.115 43.854 H 0.0 **** 0.0
7261 C 68.088 80.675 32.701 C 0.0 **** 0.0
7262 H 67.427 80.45 33.538 H 0.0 **** 0.0
7263 H 68.259 81.75 32.652 H 0.0 **** 0.0
7264 H 67.628 80.337 31.773 H 0.0 **** 0.0
7265 H 69.04 80.161 32.843 H 0.0 **** 0.0
7266 C 16.179 24.307 65.493 C 0.0 **** 0.0
7267 H 16.157 24.211 64.407 H 0.0 **** 0.0
7268 H 17.188 24.109 65.855 H 0.0 **** 0.0
7269 H 15.487 23.589 65.935 H 0.0 **** 0.0
7270 H 15.883 25.317 65.774 H 0.0 **** 0.0
7271 C 11.014 83.072 13.034 C 0.0 **** 0.0
7272 H 10.082 83.56 13.32 H 0.0 **** 0.0
7273 H 11.185 83.212 11.967 H 0.0 **** 0.0
7274 H 10.948 82.006 13.255 H 0.0 **** 0.0
7275 H 11.84 83.509 13.595 H 0.0 **** 0.0
7276 C 29.408 56.603 28.911 C 0.0 **** 0.0
7277 H 29.225 57.367 29.666 H 0.0 **** 0.0
7278 H 29.169 55.622 29.321 H 0.0 **** 0.0
7279 H 30.457 56.628 28.615 H 0.0 **** 0.0
7280 H 28.781 56.796 28.04 H 0.0 **** 0.0
7281 C 60.383 44.094 84.469 C 0.0 **** 0.0
7282 H 60.142 44.617 83.543 H 0.0 **** 0.0
7283 H 60.121 43.041 84.37 H 0.0 **** 0.0
7284 H 59.818 44.534 85.291 H 0.0 **** 0.0
7285 H 61.45 44.187 84.671 H 0.0 **** 0.0
7286 C 69.933 3.295 93.178 C 0.0 **** 0.0
7287 H 69.8 4.322 93.517 H 0.0 **** 0.0
7288 H 69.777 2.613 94.014 H 0.0 **** 0.0
7289 H 70.944 3.168 92.79 H 0.0 **** 0.0
7290 H 69.212 3.076 92.39 H 0.0 **** 0.0
7291 C 26.665 54.525 67.673 C 0.0 **** 0.0
7292 H 26.851 55.594 67.567 H 0.0 **** 0.0
7293 H 26.648 54.263 68.731 H 0.0 **** 0.0
7294 H 27.456 53.968 67.172 H 0.0 **** 0.0
7295 H 25.704 54.278 67.222 H 0.0 **** 0.0
7296 C 76.618 78.971 71.032 C 0.0 **** 0.0
7297 H 76.609 77.926 70.72 H 0.0 **** 0.0
7298 H 77.038 79.584 70.235 H 0.0 **** 0.0
7299 H 77.225 79.076 71.931 H 0.0 **** 0.0
7300 H 75.598 79.295 71.242 H 0.0 **** 0.0
7301 C 64.528 32.921 31.507 C 0.0 **** 0.0
7302 H 64.387 32.393 30.564 H 0.0 **** 0.0
7303 H 65.483 32.632 31.946 H 0.0 **** 0.0
7304 H 63.72 32.663 32.192 H 0.0 **** 0.0
7305 H 64.521 33.996 31.326 H 0.0 **** 0.0
7306 C 32.667 77.849 96.203 C 0.0 **** 0.0
7307 H 31.614 77.666 96.414 H 0.0 **** 0.0
7308 H 33.019 77.129 95.463 H 0.0 **** 0.0
7309 H 33.246 77.741 97.12 H 0.0 **** 0.0
7310 H 32.789 78.86 95.813 H 0.0 **** 0.0
7311 C 22.823 97.65 76.001 C 0.0 **** 0.0
7312 H 23.853 97.302 76.088 H 0.0 **** 0.0
7313 H 22.17 96.803 75.792 H 0.0 **** 0.0
7314 H 22.753 98.373 75.188 H 0.0 **** 0.0
7315 H 22.52 98.123 76.935 H 0.0 **** 0.0
7316 C 9.168 13.466 88.198 C 0.0 **** 0.0
7317 H 9.096 14.286 88.913 H 0.0 **** 0.0
7318 H 9.335 12.531 88.734 H 0.0 **** 0.0
7319 H 10.0 13.65 87.518 H 0.0 **** 0.0
7320 H 8.241 13.398 87.629 H 0.0 **** 0.0
7321 C 15.489 90.033 6.181 C 0.0 **** 0.0
7322 H 16.391 89.713 5.659 H 0.0 **** 0.0
7323 H 14.611 89.682 5.638 H 0.0 **** 0.0
7324 H 15.47 91.122 6.238 H 0.0 **** 0.0
7325 H 15.485 89.617 7.188 H 0.0 **** 0.0
7326 C 11.762 19.303 92.291 C 0.0 **** 0.0
7327 H 11.813 19.308 93.379 H 0.0 **** 0.0
7328 H 12.681 18.879 91.886 H 0.0 **** 0.0
7329 H 11.641 20.324 91.928 H 0.0 **** 0.0
7330 H 10.912 18.701 91.97 H 0.0 **** 0.0
7331 C 47.269 11.218 42.887 C 0.0 **** 0.0
7332 H 48.192 11.709 43.198 H 0.0 **** 0.0
7333 H 46.813 10.725 43.745 H 0.0 **** 0.0
7334 H 47.493 10.478 42.119 H 0.0 **** 0.0
7335 H 46.58 11.962 42.486 H 0.0 **** 0.0
7336 C 32.551 6.9 44.985 C 0.0 **** 0.0
7337 H 31.737 6.914 44.26 H 0.0 **** 0.0
7338 H 32.269 6.277 45.834 H 0.0 **** 0.0
7339 H 32.75 7.915 45.327 H 0.0 **** 0.0
7340 H 33.447 6.492 44.516 H 0.0 **** 0.0
7341 C 85.198 64.697 20.486 C 0.0 **** 0.0
7342 H 84.734 64.163 21.315 H 0.0 **** 0.0
7343 H 85.143 65.771 20.669 H 0.0 **** 0.0
7344 H 84.673 64.459 19.561 H 0.0 **** 0.0
7345 H 86.242 64.396 20.4 H 0.0 **** 0.0
7346 C 54.852 71.229 14.116 C 0.0 **** 0.0
7347 H 55.626 71.452 14.85 H 0.0 **** 0.0
7348 H 53.871 71.424 14.551 H 0.0 **** 0.0
7349 H 54.919 70.18 13.825 H 0.0 **** 0.0
7350 H 54.992 71.859 13.237 H 0.0 **** 0.0
7351 C 98.201 46.396 28.74 C 0.0 **** 0.0
7352 H 98.143 46.327 27.654 H 0.0 **** 0.0
7353 H 97.249 46.091 29.175 H 0.0 **** 0.0
7354 H 98.42 47.425 29.027 H 0.0 **** 0.0
7355 H 98.993 45.741 29.103 H 0.0 **** 0.0
7356 C 16.236 35.621 3.965 C 0.0 **** 0.0
7357 H 16.112 35.514 5.042 H 0.0 **** 0.0
7358 H 16.061 34.66 3.482 H 0.0 **** 0.0
7359 H 17.249 35.959 3.747 H 0.0 **** 0.0
7360 H 15.521 36.353 3.588 H 0.0 **** 0.0
7361 C 81.305 81.127 35.216 C 0.0 **** 0.0
7362 H 81.7 80.47 34.441 H 0.0 **** 0.0
7363 H 80.349 81.538 34.891 H 0.0 **** 0.0
7364 H 82.009 81.939 35.397 H 0.0 **** 0.0
7365 H 81.162 80.559 36.135 H 0.0 **** 0.0
7366 C 77.916 53.191 50.929 C 0.0 **** 0.0
7367 H 77.532 53.14 51.948 H 0.0 **** 0.0
7368 H 77.51 52.365 50.346 H 0.0 **** 0.0
7369 H 79.004 53.123 50.948 H 0.0 **** 0.0
7370 H 77.619 54.137 50.476 H 0.0 **** 0.0
7371 C 78.913 20.46 26.261 C 0.0 **** 0.0
7372 H 79.088 21.359 26.852 H 0.0 **** 0.0
7373 H 79.852 19.921 26.134 H 0.0 **** 0.0
7374 H 78.519 20.739 25.284 H 0.0 **** 0.0
7375 H 78.194 19.823 26.775 H 0.0 **** 0.0
7376 C 62.605 84.172 27.95 C 0.0 **** 0.0
7377 H 63.268 83.723 28.69 H 0.0 **** 0.0
7378 H 61.84 84.76 28.457 H 0.0 **** 0.0
7379 H 62.131 83.385 27.363 H 0.0 **** 0.0
7380 H 63.183 84.818 27.29 H 0.0 **** 0.0
7381 C 65.358 47.399 73.176 C 0.0 **** 0.0
7382 H 65.366 48.079 72.325 H 0.0 **** 0.0
7383 H 66.379 47.233 73.519 H 0.0 **** 0.0
7384 H 64.916 46.448 72.876 H 0.0 **** 0.0
7385 H 64.769 47.835 73.983 H 0.0 **** 0.0
7386 C 25.224 5.571 24.88 C 0.0 **** 0.0
7387 H 25.555 5.136 23.937 H 0.0 **** 0.0
7388 H 25.674 5.025 25.71 H 0.0 **** 0.0
7389 H 24.138 5.508 24.948 H 0.0 **** 0.0
7390 H 25.531 6.616 24.925 H 0.0 **** 0.0
7391 C 43.347 26.776 29.531 C 0.0 **** 0.0
7392 H 42.771 26.298 30.324 H 0.0 **** 0.0
7393 H 43.251 26.196 28.613 H 0.0 **** 0.0
7394 H 44.396 26.824 29.824 H 0.0 **** 0.0
7395 H 42.969 27.785 29.366 H 0.0 **** 0.0
7396 C 9.737 44.042 35.776 C 0.0 **** 0.0
7397 H 10.468 44.847 35.845 H 0.0 **** 0.0
7398 H 9.257 44.07 34.798 H 0.0 **** 0.0
7399 H 8.984 44.168 36.554 H 0.0 **** 0.0
7400 H 10.239 43.083 35.908 H 0.0 **** 0.0
7401 C 1.589 14.46 76.164 C 0.0 **** 0.0
7402 H 1.154 13.638 76.732 H 0.0 **** 0.0
7403 H 1.796 15.295 76.835 H 0.0 **** 0.0
7404 H 0.889 14.778 75.392 H 0.0 **** 0.0
7405 H 2.518 14.128 75.699 H 0.0 **** 0.0
7406 C 75.275 13.286 54.1 C 0.0 **** 0.0
7407 H 75.497 13.326 55.167 H 0.0 **** 0.0
7408 H 74.541 12.502 53.912 H 0.0 **** 0.0
7409 H 76.189 13.07 53.547 H 0.0 **** 0.0
7410 H 74.873 14.246 53.777 H 0.0 **** 0.0
7411 C 73.881 6.273 61.304 C 0.0 **** 0.0
7412 H 73.829 6.004 62.359 H 0.0 **** 0.0
7413 H 74.646 5.672 60.812 H 0.0 **** 0.0
7414 H 74.132 7.329 61.211 H 0.0 **** 0.0
7415 H 72.915 6.087 60.834 H 0.0 **** 0.0
7416 C 3.27 52.423 11.714 C 0.0 **** 0.0
7417 H 3.308 52.444 12.804 H 0.0 **** 0.0
7418 H 3.213 53.442 11.333 H 0.0 **** 0.0
7419 H 2.39 51.865 11.393 H 0.0 **** 0.0
7420 H 4.168 51.94 11.329 H 0.0 **** 0.0
7421 C 12.414 93.207 2.347 C 0.0 **** 0.0
7422 H 12.32 92.803 3.355 H 0.0 **** 0.0
7423 H 11.677 93.997 2.202 H 0.0 **** 0.0
7424 H 12.243 92.412 1.62 H 0.0 **** 0.0
7425 H 13.416 93.614 2.211 H 0.0 **** 0.0
7426 C 17.553 2.832 3.48 C 0.0 **** 0.0
7427 H 18.134 2.252 2.762 H 0.0 **** 0.0
7428 H 17.859 2.567 4.492 H 0.0 **** 0.0
7429 H 16.493 2.611 3.351 H 0.0 **** 0.0
7430 H 17.725 3.895 3.313 H 0.0 **** 0.0
7431 C 13.18 7.453 9.483 C 0.0 **** 0.0
7432 H 13.189 7.037 10.491 H 0.0 **** 0.0
7433 H 14.078 8.051 9.329 H 0.0 **** 0.0
7434 H 12.298 8.082 9.358 H 0.0 **** 0.0
7435 H 13.153 6.641 8.756 H 0.0 **** 0.0
7436 C 93.988 40.664 77.567 C 0.0 **** 0.0
7437 H 94.947 40.909 78.024 H 0.0 **** 0.0
7438 H 93.383 41.567 77.489 H 0.0 **** 0.0
7439 H 93.469 39.93 78.184 H 0.0 **** 0.0
7440 H 94.155 40.25 76.573 H 0.0 **** 0.0
7441 C 97.794 50.899 95.554 C 0.0 **** 0.0
7442 H 98.19 51.352 96.463 H 0.0 **** 0.0
7443 H 96.707 50.855 95.614 H 0.0 **** 0.0
7444 H 98.194 49.891 95.446 H 0.0 **** 0.0
7445 H 98.087 51.5 94.692 H 0.0 **** 0.0
7446 C 40.545 96.294 80.186 C 0.0 **** 0.0
7447 H 41.042 96.754 79.333 H 0.0 **** 0.0
7448 H 40.476 95.217 80.029 H 0.0 **** 0.0
7449 H 39.543 96.711 80.291 H 0.0 **** 0.0
7450 H 41.118 96.493 81.092 H 0.0 **** 0.0
7451 C 92.221 60.61 48.719 C 0.0 **** 0.0
7452 H 92.118 60.046 47.792 H 0.0 **** 0.0
7453 H 91.472 61.401 48.749 H 0.0 **** 0.0
7454 H 93.217 61.05 48.767 H 0.0 **** 0.0
7455 H 92.079 59.941 49.568 H 0.0 **** 0.0
7456 C 10.204 45.807 77.568 C 0.0 **** 0.0
7457 H 9.746 46.694 78.005 H 0.0 **** 0.0
7458 H 9.977 44.938 78.187 H 0.0 **** 0.0
7459 H 11.285 45.944 77.518 H 0.0 **** 0.0
7460 H 9.81 45.652 76.564 H 0.0 **** 0.0
7461 C 69.418 0.957 80.976 C 0.0 **** 0.0
7462 H 70.347 0.386 80.982 H 0.0 **** 0.0
7463 H 69.047 1.056 81.997 H 0.0 **** 0.0
7464 H 68.677 0.437 80.369 H 0.0 **** 0.0
7465 H 69.602 1.946 80.558 H 0.0 **** 0.0
7466 C 33.532 50.38 44.351 C 0.0 **** 0.0
7467 H 34.182 49.61 43.935 H 0.0 **** 0.0
7468 H 33.543 51.255 43.7 H 0.0 **** 0.0
7469 H 33.89 50.66 45.342 H 0.0 **** 0.0
7470 H 32.516 49.995 44.426 H 0.0 **** 0.0
7471 C 37.85 84.338 82.815 C 0.0 **** 0.0
7472 H 38.267 85.074 83.502 H 0.0 **** 0.0
7473 H 37.594 83.432 83.364 H 0.0 **** 0.0
7474 H 38.586 84.102 82.046 H 0.0 **** 0.0
7475 H 36.953 84.745 82.347 H 0.0 **** 0.0
7476 C 1.16 36.717 51.978 C 0.0 **** 0.0
7477 H 0.815 37.736 52.154 H 0.0 **** 0.0
7478 H 0.381 36.014 52.273 H 0.0 **** 0.0
7479 H 2.059 36.532 52.566 H 0.0 **** 0.0
7480 H 1.385 36.588 50.919 H 0.0 **** 0.0
7481 C 81.092 31.501 9.364 C 0.0 **** 0.0
7482 H 81.989 30.972 9.043 H 0.0 **** 0.0
7483 H 81.062 32.483 8.893 H 0.0 **** 0.0
7484 H 81.108 31.617 10.448 H 0.0 **** 0.0
7485 H 80.21 30.93 9.073 H 0.0 **** 0.0
7486 C 82.321 80.686 43.436 C 0.0 **** 0.0
7487 H 82.528 81.572 44.037 H 0.0 **** 0.0
7488 H 81.28 80.391 43.573 H 0.0 **** 0.0
7489 H 82.974 79.873 43.751 H 0.0 **** 0.0
7490 H 82.5 80.911 42.385 H 0.0 **** 0.0
7491 C 23.456 95.97 92.433 C 0.0 **** 0.0
7492 H 23.052 94.959 92.378 H 0.0 **** 0.0
7493 H 23.356 96.454 91.462 H 0.0 **** 0.0
7494 H 24.509 95.926 92.711 H 0.0 **** 0.0
7495 H 22.906 96.54 93.182 H 0.0 **** 0.0
7496 C 38.284 32.701 12.86 C 0.0 **** 0.0
7497 H 38.878 32.552 13.762 H 0.0 **** 0.0
7498 H 37.691 33.61 12.961 H 0.0 **** 0.0
7499 H 37.621 31.848 12.717 H 0.0 **** 0.0
7500 H 38.948 32.793 12.0 H 0.0 **** 0.0
7501 C 9.138 52.969 31.573 C 0.0 **** 0.0
7502 H 8.666 52.861 30.597 H 0.0 **** 0.0
7503 H 10.14 53.379 31.448 H 0.0 **** 0.0
7504 H 9.202 51.994 32.056 H 0.0 **** 0.0
7505 H 8.544 53.643 32.191 H 0.0 **** 0.0
7506 C 60.818 95.568 89.552 C 0.0 **** 0.0
7507 H 60.684 95.088 90.522 H 0.0 **** 0.0
7508 H 59.937 95.391 88.934 H 0.0 **** 0.0
7509 H 61.697 95.153 89.06 H 0.0 **** 0.0
7510 H 60.953 96.64 89.694 H 0.0 **** 0.0
7511 C 16.931 39.47 37.271 C 0.0 **** 0.0
7512 H 16.703 38.526 37.765 H 0.0 **** 0.0
7513 H 17.445 39.273 36.33 H 0.0 **** 0.0
7514 H 17.571 40.072 37.916 H 0.0 **** 0.0
7515 H 16.004 40.009 37.074 H 0.0 **** 0.0
7516 C 68.159 56.058 63.808 C 0.0 **** 0.0
7517 H 69.07 55.466 63.71 H 0.0 **** 0.0
7518 H 67.314 55.395 63.995 H 0.0 **** 0.0
7519 H 67.988 56.614 62.886 H 0.0 **** 0.0
7520 H 68.266 56.755 64.639 H 0.0 **** 0.0
7521 C 38.619 19.395 16.811 C 0.0 **** 0.0
7522 H 38.604 19.456 15.723 H 0.0 **** 0.0
7523 H 39.473 18.798 17.13 H 0.0 **** 0.0
7524 H 37.698 18.928 17.162 H 0.0 **** 0.0
7525 H 38.7 20.398 17.23 H 0.0 **** 0.0
7526 C 63.392 46.415 14.735 C 0.0 **** 0.0
7527 H 63.236 45.835 13.825 H 0.0 **** 0.0
7528 H 64.407 46.811 14.743 H 0.0 **** 0.0
7529 H 63.243 45.775 15.604 H 0.0 **** 0.0
7530 H 62.68 47.24 14.765 H 0.0 **** 0.0
7531 C 25.569 91.76 50.422 C 0.0 **** 0.0
7532 H 25.79 91.592 51.476 H 0.0 **** 0.0
7533 H 24.576 91.372 50.193 H 0.0 **** 0.0
7534 H 26.31 91.246 49.809 H 0.0 **** 0.0
7535 H 25.6 92.828 50.21 H 0.0 **** 0.0
7536 C 16.49 50.89 52.252 C 0.0 **** 0.0
7537 H 16.531 50.491 51.239 H 0.0 **** 0.0
7538 H 15.814 50.282 52.854 H 0.0 **** 0.0
7539 H 16.128 51.917 52.225 H 0.0 **** 0.0
7540 H 17.487 50.867 52.691 H 0.0 **** 0.0
7541 C 87.435 92.925 41.297 C 0.0 **** 0.0
7542 H 86.886 93.865 41.235 H 0.0 **** 0.0
7543 H 87.232 92.326 40.41 H 0.0 **** 0.0
7544 H 87.119 92.379 42.186 H 0.0 **** 0.0
7545 H 88.503 93.133 41.359 H 0.0 **** 0.0
7546 C 39.304 78.448 61.077 C 0.0 **** 0.0
7547 H 39.351 78.48 59.988 H 0.0 **** 0.0
7548 H 38.27 78.296 61.39 H 0.0 **** 0.0
7549 H 39.673 79.389 61.485 H 0.0 **** 0.0
7550 H 39.919 77.626 61.443 H 0.0 **** 0.0
7551 C 40.026 88.064 57.934 C 0.0 **** 0.0
7552 H 39.911 87.618 56.947 H 0.0 **** 0.0
7553 H 39.125 87.885 58.521 H 0.0 **** 0.0
7554 H 40.187 89.137 57.832 H 0.0 **** 0.0
7555 H 40.883 87.615 58.437 H 0.0 **** 0.0
7556 C 95.067 83.115 73.608 C 0.0 **** 0.0
7557 H 94.601 83.373 72.657 H 0.0 **** 0.0
7558 H 95.989 83.684 73.726 H 0.0 **** 0.0
7559 H 95.293 82.049 73.624 H 0.0 **** 0.0
7560 H 94.385 83.354 74.423 H 0.0 **** 0.0
7561 C 41.987 77.955 66.056 C 0.0 **** 0.0
7562 H 41.968 78.3 67.089 H 0.0 **** 0.0
7563 H 42.822 78.423 65.532 H 0.0 **** 0.0
7564 H 41.052 78.225 65.565 H 0.0 **** 0.0
7565 H 42.108 76.872 66.037 H 0.0 **** 0.0
7566 C 7.201 85.32 51.015 C 0.0 **** 0.0
7567 H 8.288 85.236 51.035 H 0.0 **** 0.0
7568 H 6.91 86.336 51.282 H 0.0 **** 0.0
7569 H 6.77 84.619 51.729 H 0.0 **** 0.0
7570 H 6.838 85.089 50.014 H 0.0 **** 0.0
7571 C 44.36 43.223 32.048 C 0.0 **** 0.0
7572 H 44.664 42.405 31.395 H 0.0 **** 0.0
7573 H 44.534 42.943 33.087 H 0.0 **** 0.0
7574 H 43.301 43.431 31.899 H 0.0 **** 0.0
7575 H 44.943 44.113 31.809 H 0.0 **** 0.0
7576 C 45.421 98.127 96.81 C 0.0 **** 0.0
7577 H 45.501 98.379 95.753 H 0.0 **** 0.0
7578 H 46.148 98.709 97.378 H 0.0 **** 0.0
7579 H 45.62 97.064 96.946 H 0.0 **** 0.0
7580 H 44.416 98.357 97.163 H 0.0 **** 0.0
7581 C 98.306 78.399 74.745 C 0.0 **** 0.0
7582 H 98.389 78.815 73.741 H 0.0 **** 0.0
7583 H 99.0 78.913 75.41 H 0.0 **** 0.0
7584 H 98.547 77.336 74.718 H 0.0 **** 0.0
7585 H 97.287 78.531 75.109 H 0.0 **** 0.0
7586 C 53.523 81.534 83.645 C 0.0 **** 0.0
7587 H 52.814 81.307 82.849 H 0.0 **** 0.0
7588 H 54.316 80.785 83.649 H 0.0 **** 0.0
7589 H 53.007 81.523 84.605 H 0.0 **** 0.0
7590 H 53.956 82.52 83.476 H 0.0 **** 0.0
7591 C 13.977 1.952 79.957 C 0.0 **** 0.0
7592 H 13.677 1.139 79.295 H 0.0 **** 0.0
7593 H 14.882 2.42 79.569 H 0.0 **** 0.0
7594 H 14.17 1.556 80.954 H 0.0 **** 0.0
7595 H 13.179 2.692 80.008 H 0.0 **** 0.0
7596 C 91.522 3.379 43.129 C 0.0 **** 0.0
7597 H 90.946 3.152 42.232 H 0.0 **** 0.0
7598 H 91.841 2.449 43.6 H 0.0 **** 0.0
7599 H 90.904 3.945 43.824 H 0.0 **** 0.0
7600 H 92.398 3.968 42.858 H 0.0 **** 0.0
7601 C 9.827 69.64 33.353 C 0.0 **** 0.0
7602 H 9.603 69.35 32.326 H 0.0 **** 0.0
7603 H 10.654 69.038 33.729 H 0.0 **** 0.0
7604 H 8.947 69.478 33.975 H 0.0 **** 0.0
7605 H 10.102 70.694 33.38 H 0.0 **** 0.0
7606 C 4.758 90.55 68.257 C 0.0 **** 0.0
7607 H 5.191 90.928 67.332 H 0.0 **** 0.0
7608 H 5.532 90.053 68.844 H 0.0 **** 0.0
7609 H 3.966 89.838 68.024 H 0.0 **** 0.0
7610 H 4.343 91.379 68.83 H 0.0 **** 0.0
7611 C 40.135 18.373 53.747 C 0.0 **** 0.0
7612 H 40.14 18.31 52.659 H 0.0 **** 0.0
7613 H 39.787 19.361 54.052 H 0.0 **** 0.0
7614 H 41.145 18.211 54.124 H 0.0 **** 0.0
7615 H 39.469 17.612 54.152 H 0.0 **** 0.0
7616 C 90.268 20.114 84.932 C 0.0 **** 0.0
7617 H 90.098 20.515 85.931 H 0.0 **** 0.0
7618 H 90.949 20.769 84.389 H 0.0 **** 0.0
7619 H 89.319 20.053 84.399 H 0.0 **** 0.0
7620 H 90.705 19.118 85.009 H 0.0 **** 0.0
7621 C 21.929 10.908 26.854 C 0.0 **** 0.0
7622 H 21.914 10.881 27.944 H 0.0 **** 0.0
7623 H 20.905 10.91 26.477 H 0.0 **** 0.0
7624 H 22.454 10.032 26.476 H 0.0 **** 0.0
7625 H 22.44 11.811 26.52 H 0.0 **** 0.0
7626 C 60.088 77.092 20.388 C 0.0 **** 0.0
7627 H 61.078 76.744 20.683 H 0.0 **** 0.0
7628 H 59.434 76.234 20.23 H 0.0 **** 0.0
7629 H 60.165 77.666 19.465 H 0.0 **** 0.0
7630 H 59.676 77.724 21.175 H 0.0 **** 0.0
7631 C 68.244 28.373 94.694 C 0.0 **** 0.0
7632 H 67.473 29.042 95.075 H 0.0 **** 0.0
7633 H 68.943 28.937 94.076 H 0.0 **** 0.0
7634 H 67.781 27.588 94.096 H 0.0 **** 0.0
7635 H 68.78 27.923 95.531 H 0.0 **** 0.0
7636 C 7.806 17.193 88.297 C 0.0 **** 0.0
7637 H 7.037 17.956 88.414 H 0.0 **** 0.0
7638 H 8.369 17.099 89.225 H 0.0 **** 0.0
7639 H 8.481 17.479 87.49 H 0.0 **** 0.0
7640 H 7.337 16.239 88.057 H 0.0 **** 0.0
7641 C 13.834 69.342 38.355 C 0.0 **** 0.0
7642 H 12.745 69.363 38.325 H 0.0 **** 0.0
7643 H 14.163 68.843 39.267 H 0.0 **** 0.0
7644 H 14.218 70.362 38.34 H 0.0 **** 0.0
7645 H 14.211 68.8 37.487 H 0.0 **** 0.0
7646 C 29.175 81.797 72.006 C 0.0 **** 0.0
7647 H 29.705 82.347 71.229 H 0.0 **** 0.0
7648 H 29.437 82.205 72.983 H 0.0 **** 0.0
7649 H 29.458 80.745 71.964 H 0.0 **** 0.0
7650 H 28.101 81.891 71.849 H 0.0 **** 0.0
7651 C 56.571 7.959 28.278 C 0.0 **** 0.0
7652 H 56.927 8.975 28.451 H 0.0 **** 0.0
7653 H 55.49 7.926 28.409 H 0.0 **** 0.0
7654 H 57.045 7.283 28.989 H 0.0 **** 0.0
7655 H 56.825 7.654 27.263 H 0.0 **** 0.0
7656 C 21.78 33.839 4.036 C 0.0 **** 0.0
7657 H 22.218 33.107 4.715 H 0.0 **** 0.0
7658 H 21.702 34.802 4.542 H 0.0 **** 0.0
7659 H 20.787 33.506 3.734 H 0.0 **** 0.0
7660 H 22.413 33.941 3.155 H 0.0 **** 0.0
7661 C 85.826 7.751 4.135 C 0.0 **** 0.0
7662 H 86.436 8.626 4.359 H 0.0 **** 0.0
7663 H 85.125 7.993 3.335 H 0.0 **** 0.0
7664 H 85.273 7.456 5.027 H 0.0 **** 0.0
7665 H 86.47 6.931 3.818 H 0.0 **** 0.0
7666 C 86.084 12.118 74.958 C 0.0 **** 0.0
7667 H 86.261 11.501 74.077 H 0.0 **** 0.0
7668 H 85.813 13.127 74.646 H 0.0 **** 0.0
7669 H 86.991 12.156 75.562 H 0.0 **** 0.0
7670 H 85.273 11.689 75.546 H 0.0 **** 0.0
7671 C 47.764 72.565 37.152 C 0.0 **** 0.0
7672 H 47.628 72.423 36.079 H 0.0 **** 0.0
7673 H 46.79 72.661 37.631 H 0.0 **** 0.0
7674 H 48.347 73.469 37.327 H 0.0 **** 0.0
7675 H 48.292 71.706 37.567 H 0.0 **** 0.0
7676 C 70.197 44.813 97.233 C 0.0 **** 0.0
7677 H 69.971 45.828 96.908 H 0.0 **** 0.0
7678 H 70.632 44.84 98.232 H 0.0 **** 0.0
7679 H 70.905 44.359 96.54 H 0.0 **** 0.0
7680 H 69.279 44.225 97.252 H 0.0 **** 0.0
7681 C 48.235 84.494 74.586 C 0.0 **** 0.0
7682 H 49.323 84.431 74.576 H 0.0 **** 0.0
7683 H 47.892 84.69 75.602 H 0.0 **** 0.0
7684 H 47.814 83.553 74.234 H 0.0 **** 0.0
7685 H 47.913 85.304 73.931 H 0.0 **** 0.0
7686 C 33.164 34.709 7.734 C 0.0 **** 0.0
7687 H 32.321 35.16 7.21 H 0.0 **** 0.0
7688 H 33.392 33.74 7.288 H 0.0 **** 0.0
7689 H 32.908 34.575 8.785 H 0.0 **** 0.0
7690 H 34.033 35.361 7.652 H 0.0 **** 0.0
7691 C 42.917 49.286 21.939 C 0.0 **** 0.0
7692 H 43.349 48.722 22.766 H 0.0 **** 0.0
7693 H 42.34 48.614 21.303 H 0.0 **** 0.0
7694 H 43.716 49.743 21.355 H 0.0 **** 0.0
7695 H 42.264 50.064 22.332 H 0.0 **** 0.0
7696 C 53.63 51.341 90.8 C 0.0 **** 0.0
7697 H 54.152 51.514 89.859 H 0.0 **** 0.0
7698 H 53.619 52.262 91.384 H 0.0 **** 0.0
7699 H 54.144 50.561 91.362 H 0.0 **** 0.0
7700 H 52.607 51.027 90.596 H 0.0 **** 0.0
7701 C 73.152 32.955 92.677 C 0.0 **** 0.0
7702 H 73.453 33.763 93.343 H 0.0 **** 0.0
7703 H 72.238 32.495 93.053 H 0.0 **** 0.0
7704 H 73.943 32.206 92.633 H 0.0 **** 0.0
7705 H 72.974 33.354 91.678 H 0.0 **** 0.0
7706 C 48.214 37.979 16.487 C 0.0 **** 0.0
7707 H 48.024 37.621 15.476 H 0.0 **** 0.0
7708 H 48.871 38.848 16.447 H 0.0 **** 0.0
7709 H 48.689 37.189 17.069 H 0.0 **** 0.0
7710 H 47.27 38.258 16.957 H 0.0 **** 0.0
7711 C 93.478 91.96 73.71 C 0.0 **** 0.0
7712 H 92.619 92.597 73.501 H 0.0 **** 0.0
7713 H 93.869 91.559 72.775 H 0.0 **** 0.0
7714 H 93.171 91.138 74.358 H 0.0 **** 0.0
7715 H 94.252 92.545 74.207 H 0.0 **** 0.0
7716 C 81.379 81.892 31.587 C 0.0 **** 0.0
7717 H 82.097 82.567 31.122 H 0.0 **** 0.0
7718 H 81.651 81.735 32.631 H 0.0 **** 0.0
7719 H 81.387 80.936 31.062 H 0.0 **** 0.0
7720 H 80.382 82.328 31.532 H 0.0 **** 0.0
7721 C 15.593 3.596 45.664 C 0.0 **** 0.0
7722 H 16.35 4.302 45.324 H 0.0 **** 0.0
7723 H 14.828 3.485 44.895 H 0.0 **** 0.0
7724 H 15.136 3.968 46.581 H 0.0 **** 0.0
7725 H 16.058 2.629 45.856 H 0.0 **** 0.0
7726 C 68.721 58.025 83.559 C 0.0 **** 0.0
7727 H 68.744 57.761 84.616 H 0.0 **** 0.0
7728 H 69.654 57.716 83.087 H 0.0 **** 0.0
7729 H 68.601 59.103 83.456 H 0.0 **** 0.0
7730 H 67.884 57.519 83.077 H 0.0 **** 0.0
7731 C 82.993 22.153 63.839 C 0.0 **** 0.0
7732 H 82.981 22.144 64.928 H 0.0 **** 0.0
7733 H 83.92 21.703 63.483 H 0.0 **** 0.0
7734 H 82.928 23.181 63.483 H 0.0 **** 0.0
7735 H 82.144 21.583 63.461 H 0.0 **** 0.0
7736 C 78.068 33.265 56.535 C 0.0 **** 0.0
7737 H 78.094 32.759 57.5 H 0.0 **** 0.0
7738 H 77.184 33.9 56.482 H 0.0 **** 0.0
7739 H 78.032 32.523 55.737 H 0.0 **** 0.0
7740 H 78.963 33.877 56.423 H 0.0 **** 0.0
7741 C 26.569 85.216 93.72 C 0.0 **** 0.0
7742 H 27.509 84.933 94.194 H 0.0 **** 0.0
7743 H 26.522 86.302 93.626 H 0.0 **** 0.0
7744 H 25.735 84.868 94.33 H 0.0 **** 0.0
7745 H 26.51 84.763 92.73 H 0.0 **** 0.0
7746 C 12.046 45.467 84.222 C 0.0 **** 0.0
7747 H 12.484 45.573 85.215 H 0.0 **** 0.0
7748 H 11.657 44.456 84.102 H 0.0 **** 0.0
7749 H 12.808 45.656 83.467 H 0.0 **** 0.0
7750 H 11.234 46.185 84.106 H 0.0 **** 0.0
7751 C 67.231 38.047 60.392 C 0.0 **** 0.0
7752 H 66.419 37.642 59.788 H 0.0 **** 0.0
7753 H 66.901 38.141 61.427 H 0.0 **** 0.0
7754 H 67.514 39.027 60.009 H 0.0 **** 0.0
7755 H 68.088 37.376 60.344 H 0.0 **** 0.0
7756 C 96.226 77.015 39.989 C 0.0 **** 0.0
7757 H 96.433 75.974 39.737 H 0.0 **** 0.0
7758 H 97.122 77.613 39.824 H 0.0 **** 0.0
7759 H 95.93 77.083 41.035 H 0.0 **** 0.0
7760 H 95.419 77.387 39.357 H 0.0 **** 0.0
7761 C 51.861 7.058 73.087 C 0.0 **** 0.0
7762 H 51.341 7.75 73.749 H 0.0 **** 0.0
7763 H 52.937 7.152 73.235 H 0.0 **** 0.0
7764 H 51.615 7.291 72.051 H 0.0 **** 0.0
7765 H 51.551 6.038 73.313 H 0.0 **** 0.0
7766 C 89.401 49.14 73.429 C 0.0 **** 0.0
7767 H 89.217 49.661 74.369 H 0.0 **** 0.0
7768 H 89.258 49.83 72.598 H 0.0 **** 0.0
7769 H 88.704 48.306 73.334 H 0.0 **** 0.0
7770 H 90.423 48.762 73.418 H 0.0 **** 0.0
7771 C 13.834 50.725 22.915 C 0.0 **** 0.0
7772 H 13.252 51.08 23.766 H 0.0 **** 0.0
7773 H 14.751 51.309 22.834 H 0.0 **** 0.0
7774 H 13.249 50.837 22.003 H 0.0 **** 0.0
7775 H 14.084 49.674 23.06 H 0.0 **** 0.0
7776 C 8.775 48.185 93.831 C 0.0 **** 0.0
7777 H 9.034 48.597 92.856 H 0.0 **** 0.0
7778 H 9.678 48.081 94.433 H 0.0 **** 0.0
7779 H 8.31 47.207 93.7 H 0.0 **** 0.0
7780 H 8.077 48.854 94.334 H 0.0 **** 0.0
7781 C 54.2 98.018 73.212 C 0.0 **** 0.0
7782 H 53.394 97.286 73.191 H 0.0 **** 0.0
7783 H 54.633 98.053 74.212 H 0.0 **** 0.0
7784 H 53.805 99.001 72.953 H 0.0 **** 0.0
7785 H 54.968 97.734 72.492 H 0.0 **** 0.0
7786 C 27.974 74.339 56.546 C 0.0 **** 0.0
7787 H 28.416 73.912 57.446 H 0.0 **** 0.0
7788 H 27.301 73.611 56.091 H 0.0 **** 0.0
7789 H 28.765 74.594 55.84 H 0.0 **** 0.0
7790 H 27.415 75.238 56.806 H 0.0 **** 0.0
7791 C 34.198 90.675 53.921 C 0.0 **** 0.0
7792 H 33.167 90.343 53.806 H 0.0 **** 0.0
7793 H 34.301 91.224 54.857 H 0.0 **** 0.0
7794 H 34.466 91.324 53.088 H 0.0 **** 0.0
7795 H 34.859 89.808 53.933 H 0.0 **** 0.0
7796 C 65.472 42.759 72.121 C 0.0 **** 0.0
7797 H 65.703 42.834 73.183 H 0.0 **** 0.0
7798 H 65.328 41.711 71.854 H 0.0 **** 0.0
7799 H 66.296 43.172 71.54 H 0.0 **** 0.0
7800 H 64.561 43.317 71.907 H 0.0 **** 0.0
7801 C 3.716 86.234 23.607 C 0.0 **** 0.0
7802 H 4.322 85.623 24.276 H 0.0 **** 0.0
7803 H 4.05 87.271 23.66 H 0.0 **** 0.0
7804 H 2.67 86.172 23.906 H 0.0 **** 0.0
7805 H 3.825 85.869 22.585 H 0.0 **** 0.0
7806 C 4.038 21.277 22.706 C 0.0 **** 0.0
7807 H 3.24 22.01 22.821 H 0.0 **** 0.0
7808 H 4.857 21.523 23.382 H 0.0 **** 0.0
7809 H 4.399 21.292 21.677 H 0.0 **** 0.0
7810 H 3.657 20.284 22.943 H 0.0 **** 0.0
7811 C 21.455 54.271 14.203 C 0.0 **** 0.0
7812 H 20.511 54.816 14.236 H 0.0 **** 0.0
7813 H 21.791 54.066 15.22 H 0.0 **** 0.0
7814 H 22.204 54.873 13.688 H 0.0 **** 0.0
7815 H 21.314 53.332 13.67 H 0.0 **** 0.0
7816 C 82.205 82.763 74.074 C 0.0 **** 0.0
7817 H 82.962 83.5 73.804 H 0.0 **** 0.0
7818 H 82.079 82.752 75.156 H 0.0 **** 0.0
7819 H 82.522 81.777 73.734 H 0.0 **** 0.0
7820 H 81.259 83.024 73.599 H 0.0 **** 0.0
7821 C 73.808 60.954 57.412 C 0.0 **** 0.0
7822 H 73.386 60.691 56.442 H 0.0 **** 0.0
7823 H 74.841 61.277 57.283 H 0.0 **** 0.0
7824 H 73.778 60.084 58.068 H 0.0 **** 0.0
7825 H 73.226 61.762 57.854 H 0.0 **** 0.0
7826 C 22.495 52.06 68.295 C 0.0 **** 0.0
7827 H 21.427 51.894 68.158 H 0.0 **** 0.0
7828 H 22.857 52.749 67.531 H 0.0 **** 0.0
7829 H 23.024 51.111 68.209 H 0.0 **** 0.0
7830 H 22.673 52.486 69.283 H 0.0 **** 0.0
7831 C 69.568 96.445 11.99 C 0.0 **** 0.0
7832 H 69.527 96.556 13.073 H 0.0 **** 0.0
7833 H 68.893 95.647 11.681 H 0.0 **** 0.0
7834 H 70.586 96.198 11.688 H 0.0 **** 0.0
7835 H 69.266 97.38 11.517 H 0.0 **** 0.0
7836 C 41.931 74.895 9.739 C 0.0 **** 0.0
7837 H 41.397 74.015 10.099 H 0.0 **** 0.0
7838 H 42.242 74.734 8.707 H 0.0 **** 0.0
7839 H 42.809 75.067 10.361 H 0.0 **** 0.0
7840 H 41.274 75.764 9.79 H 0.0 **** 0.0
7841 C 22.124 75.683 84.014 C 0.0 **** 0.0
7842 H 22.294 75.658 85.09 H 0.0 **** 0.0
7843 H 23.061 75.907 83.504 H 0.0 **** 0.0
7844 H 21.389 76.453 83.78 H 0.0 **** 0.0
7845 H 21.752 74.714 83.683 H 0.0 **** 0.0
7846 C 76.482 24.023 2.037 C 0.0 **** 0.0
7847 H 76.612 23.919 0.96 H 0.0 **** 0.0
7848 H 75.418 24.038 2.274 H 0.0 **** 0.0
7849 H 76.941 24.954 2.37 H 0.0 **** 0.0
7850 H 76.956 23.183 2.543 H 0.0 **** 0.0
7851 C 32.171 86.791 88.591 C 0.0 **** 0.0
7852 H 31.949 86.419 89.591 H 0.0 **** 0.0
7853 H 32.838 87.65 88.663 H 0.0 **** 0.0
7854 H 31.245 87.089 88.1 H 0.0 **** 0.0
7855 H 32.653 86.004 88.01 H 0.0 **** 0.0
7856 C 46.193 81.656 54.478 C 0.0 **** 0.0
7857 H 46.191 81.111 53.535 H 0.0 **** 0.0
7858 H 46.561 82.669 54.311 H 0.0 **** 0.0
7859 H 46.841 81.147 55.191 H 0.0 **** 0.0
7860 H 45.179 81.699 54.875 H 0.0 **** 0.0
7861 C 33.705 68.288 87.21 C 0.0 **** 0.0
7862 H 34.472 68.959 87.598 H 0.0 **** 0.0
7863 H 34.084 67.266 87.205 H 0.0 **** 0.0
7864 H 33.444 68.585 86.194 H 0.0 **** 0.0
7865 H 32.82 68.345 87.844 H 0.0 **** 0.0
7866 C 96.645 36.106 1.239 C 0.0 **** 0.0
7867 H 96.633 36.15 0.15 H 0.0 **** 0.0
7868 H 95.682 36.441 1.626 H 0.0 **** 0.0
7869 H 97.435 36.753 1.62 H 0.0 **** 0.0
7870 H 96.829 35.08 1.559 H 0.0 **** 0.0
7871 C 82.185 40.799 84.344 C 0.0 **** 0.0
7872 H 82.158 41.49 83.501 H 0.0 **** 0.0
7873 H 83.172 40.827 84.805 H 0.0 **** 0.0
7874 H 81.977 39.788 83.991 H 0.0 **** 0.0
7875 H 81.432 41.09 85.076 H 0.0 **** 0.0
7876 C 63.403 31.948 75.618 C 0.0 **** 0.0
7877 H 62.483 32.44 75.303 H 0.0 **** 0.0
7878 H 64.187 32.14 74.885 H 0.0 **** 0.0
7879 H 63.232 30.874 75.695 H 0.0 **** 0.0
7880 H 63.709 32.337 76.589 H 0.0 **** 0.0
7881 C 20.14 54.18 65.947 C 0.0 **** 0.0
7882 H 20.925 54.019 65.208 H 0.0 **** 0.0
7883 H 20.537 53.992 66.945 H 0.0 **** 0.0
7884 H 19.312 53.499 65.75 H 0.0 **** 0.0
7885 H 19.787 55.209 65.883 H 0.0 **** 0.0
7886 C 24.98 58.401 19.429 C 0.0 **** 0.0
7887 H 24.798 59.331 18.889 H 0.0 **** 0.0
7888 H 24.287 58.327 20.268 H 0.0 **** 0.0
7889 H 26.004 58.393 19.801 H 0.0 **** 0.0
7890 H 24.83 57.556 18.757 H 0.0 **** 0.0
7891 C 50.886 88.787 80.791 C 0.0 **** 0.0
7892 H 50.187 89.592 80.562 H 0.0 **** 0.0
7893 H 50.499 87.847 80.399 H 0.0 **** 0.0
7894 H 51.008 88.709 81.871 H 0.0 **** 0.0
7895 H 51.851 89.003 80.332 H 0.0 **** 0.0
7896 C 20.16 70.014 73.942 C 0.0 **** 0.0
7897 H 20.072 70.082 75.026 H 0.0 **** 0.0
7898 H 19.269 70.438 73.478 H 0.0 **** 0.0
7899 H 20.26 68.969 73.65 H 0.0 **** 0.0
7900 H 21.039 70.569 73.613 H 0.0 **** 0.0
7901 C 42.71 92.254 27.212 C 0.0 **** 0.0
7902 H 43.201 91.504 27.832 H 0.0 **** 0.0
7903 H 43.168 93.227 27.388 H 0.0 **** 0.0
7904 H 41.651 92.299 27.465 H 0.0 **** 0.0
7905 H 42.822 91.985 26.161 H 0.0 **** 0.0
7906 C 67.947 83.005 55.157 C 0.0 **** 0.0
7907 H 66.951 83.422 55.304 H 0.0 **** 0.0
7908 H 68.546 83.698 54.565 H 0.0 **** 0.0
7909 H 67.869 82.053 54.633 H 0.0 **** 0.0
7910 H 68.423 82.849 56.125 H 0.0 **** 0.0
7911 C 53.009 10.157 40.028 C 0.0 **** 0.0
7912 H 53.394 9.59 40.875 H 0.0 **** 0.0
7913 H 52.202 9.599 39.554 H 0.0 **** 0.0
7914 H 53.81 10.322 39.307 H 0.0 **** 0.0
7915 H 52.631 11.119 40.376 H 0.0 **** 0.0
7916 C 98.022 8.322 72.386 C 0.0 **** 0.0
7917 H 99.007 7.936 72.124 H 0.0 **** 0.0
7918 H 97.494 7.588 72.995 H 0.0 **** 0.0
7919 H 97.454 8.516 71.476 H 0.0 **** 0.0
7920 H 98.134 9.249 72.949 H 0.0 **** 0.0
7921 C 84.229 5.908 76.512 C 0.0 **** 0.0
7922 H 85.24 5.718 76.152 H 0.0 **** 0.0
7923 H 83.899 5.07 77.126 H 0.0 **** 0.0
7924 H 83.556 6.024 75.662 H 0.0 **** 0.0
7925 H 84.221 6.821 77.108 H 0.0 **** 0.0
7926 C 49.311 72.549 11.841 C 0.0 **** 0.0
7927 H 48.557 72.931 11.153 H 0.0 **** 0.0
7928 H 50.287 72.564 11.356 H 0.0 **** 0.0
7929 H 49.06 71.527 12.124 H 0.0 **** 0.0
7930 H 49.339 73.176 12.733 H 0.0 **** 0.0
7931 C 27.627 78.071 66.695 C 0.0 **** 0.0
7932 H 27.711 77.071 67.122 H 0.0 **** 0.0
7933 H 27.945 78.047 65.652 H 0.0 **** 0.0
7934 H 28.261 78.759 67.253 H 0.0 **** 0.0
7935 H 26.591 78.404 66.752 H 0.0 **** 0.0
7936 C 57.234 62.631 68.914 C 0.0 **** 0.0
7937 H 57.664 62.229 69.831 H 0.0 **** 0.0
7938 H 58.033 62.97 68.256 H 0.0 **** 0.0
7939 H 56.582 63.47 69.157 H 0.0 **** 0.0
7940 H 56.655 61.854 68.414 H 0.0 **** 0.0
7941 C 80.367 58.478 58.458 C 0.0 **** 0.0
7942 H 79.61 58.429 57.675 H 0.0 **** 0.0
7943 H 81.271 57.971 58.121 H 0.0 **** 0.0
7944 H 79.991 57.99 59.357 H 0.0 **** 0.0
7945 H 80.595 59.521 58.678 H 0.0 **** 0.0
7946 C 18.989 56.267 80.636 C 0.0 **** 0.0
7947 H 18.896 56.37 79.555 H 0.0 **** 0.0
7948 H 18.0 56.32 81.092 H 0.0 **** 0.0
7949 H 19.612 57.073 81.025 H 0.0 **** 0.0
7950 H 19.448 55.307 80.871 H 0.0 **** 0.0
7951 C 49.368 14.959 26.255 C 0.0 **** 0.0
7952 H 48.501 14.644 25.674 H 0.0 **** 0.0
7953 H 49.942 14.082 26.553 H 0.0 **** 0.0
7954 H 49.034 15.495 27.143 H 0.0 **** 0.0
7955 H 49.993 15.615 25.649 H 0.0 **** 0.0
7956 C 91.36 97.105 52.535 C 0.0 **** 0.0
7957 H 91.372 97.087 53.625 H 0.0 **** 0.0
7958 H 90.905 98.034 52.191 H 0.0 **** 0.0
7959 H 90.781 96.258 52.165 H 0.0 **** 0.0
7960 H 92.381 97.038 52.159 H 0.0 **** 0.0
7961 C 13.061 17.126 78.608 C 0.0 **** 0.0
7962 H 14.147 17.089 78.528 H 0.0 **** 0.0
7963 H 12.667 16.111 78.67 H 0.0 **** 0.0
7964 H 12.649 17.623 77.73 H 0.0 **** 0.0
7965 H 12.781 17.679 79.504 H 0.0 **** 0.0
7966 C 7.832 87.264 69.914 C 0.0 **** 0.0
7967 H 8.303 87.403 70.887 H 0.0 **** 0.0
7968 H 8.543 86.799 69.23 H 0.0 **** 0.0
7969 H 7.525 88.231 69.518 H 0.0 **** 0.0
7970 H 6.958 86.621 70.022 H 0.0 **** 0.0
7971 C 4.544 23.041 93.95 C 0.0 **** 0.0
7972 H 3.684 23.304 94.567 H 0.0 **** 0.0
7973 H 5.243 23.877 93.927 H 0.0 **** 0.0
7974 H 4.208 22.82 92.936 H 0.0 **** 0.0
7975 H 5.037 22.165 94.369 H 0.0 **** 0.0
7976 C 63.366 68.008 19.479 C 0.0 **** 0.0
7977 H 64.285 68.593 19.442 H 0.0 **** 0.0
7978 H 63.604 66.95 19.369 H 0.0 **** 0.0
7979 H 62.706 68.319 18.668 H 0.0 **** 0.0
7980 H 62.869 68.172 20.435 H 0.0 **** 0.0
7981 C 72.63 46.657 38.601 C 0.0 **** 0.0
7982 H 71.739 46.886 38.017 H 0.0 **** 0.0
7983 H 72.544 47.112 39.588 H 0.0 **** 0.0
7984 H 73.509 47.053 38.093 H 0.0 **** 0.0
7985 H 72.728 45.576 38.707 H 0.0 **** 0.0
7986 C 52.022 2.168 86.372 C 0.0 **** 0.0
7987 H 52.738 1.369 86.183 H 0.0 **** 0.0
7988 H 52.417 2.837 87.138 H 0.0 **** 0.0
7989 H 51.081 1.739 86.715 H 0.0 **** 0.0
7990 H 51.853 2.729 85.453 H 0.0 **** 0.0
7991 C 31.599 76.946 5.807 C 0.0 **** 0.0
7992 H 31.516 77.959 5.412 H 0.0 **** 0.0
7993 H 32.65 76.66 5.855 H 0.0 **** 0.0
7994 H 31.064 76.257 5.154 H 0.0 **** 0.0
7995 H 31.166 76.91 6.806 H 0.0 **** 0.0
7996 C 30.91 39.89 11.915 C 0.0 **** 0.0
7997 H 31.459 40.35 11.093 H 0.0 **** 0.0
7998 H 31.582 39.741 12.761 H 0.0 **** 0.0
7999 H 30.512 38.928 11.593 H 0.0 **** 0.0
8000 H 30.09 40.543 12.213 H 0.0 **** 0.0
8001 C 35.651 51.789 11.461 C 0.0 **** 0.0
8002 H 36.476 51.341 12.015 H 0.0 **** 0.0
8003 H 35.829 51.675 10.391 H 0.0 **** 0.0
8004 H 35.581 52.848 11.707 H 0.0 **** 0.0
8005 H 34.72 51.29 11.729 H 0.0 **** 0.0
8006 C 74.0 74.041 70.19 C 0.0 **** 0.0
8007 H 73.851 74.692 71.052 H 0.0 **** 0.0
8008 H 74.608 73.185 70.482 H 0.0 **** 0.0
8009 H 74.507 74.596 69.401 H 0.0 **** 0.0
8010 H 73.033 73.694 69.827 H 0.0 **** 0.0
8011 C 8.051 97.218 54.098 C 0.0 **** 0.0
8012 H 7.124 96.663 54.238 H 0.0 **** 0.0
8013 H 8.826 96.545 53.733 H 0.0 **** 0.0
8014 H 8.362 97.65 55.049 H 0.0 **** 0.0
8015 H 7.891 98.016 53.372 H 0.0 **** 0.0
8016 C 89.454 97.412 66.165 C 0.0 **** 0.0
8017 H 90.484 97.752 66.273 H 0.0 **** 0.0
8018 H 88.967 97.414 67.14 H 0.0 **** 0.0
8019 H 89.446 96.402 65.756 H 0.0 **** 0.0
8020 H 88.92 98.081 65.49 H 0.0 **** 0.0
8021 C 35.431 90.127 29.979 C 0.0 **** 0.0
8022 H 34.768 89.544 30.619 H 0.0 **** 0.0
8023 H 36.339 90.378 30.528 H 0.0 **** 0.0
8024 H 34.927 91.044 29.673 H 0.0 **** 0.0
8025 H 35.69 89.543 29.096 H 0.0 **** 0.0
8026 C 8.981 91.386 98.022 C 0.0 **** 0.0
8027 H 9.436 91.236 99.001 H 0.0 **** 0.0
8028 H 8.66 90.425 97.619 H 0.0 **** 0.0
8029 H 9.709 91.838 97.348 H 0.0 **** 0.0
8030 H 8.119 92.046 98.12 H 0.0 **** 0.0
8031 C 78.781 77.799 67.715 C 0.0 **** 0.0
8032 H 79.427 78.48 68.27 H 0.0 **** 0.0
8033 H 79.026 77.851 66.654 H 0.0 **** 0.0
8034 H 77.74 78.085 67.864 H 0.0 **** 0.0
8035 H 78.933 76.781 68.074 H 0.0 **** 0.0
8036 C 28.749 14.218 7.898 C 0.0 **** 0.0
8037 H 28.325 14.93 7.19 H 0.0 **** 0.0
8038 H 28.167 13.296 7.878 H 0.0 **** 0.0
8039 H 28.722 14.644 8.901 H 0.0 **** 0.0
8040 H 29.781 14.002 7.623 H 0.0 **** 0.0
8041 C 46.662 46.079 74.253 C 0.0 **** 0.0
8042 H 46.77 46.934 73.586 H 0.0 **** 0.0
8043 H 45.621 45.758 74.266 H 0.0 **** 0.0
8044 H 46.969 46.362 75.26 H 0.0 **** 0.0
8045 H 47.29 45.261 73.899 H 0.0 **** 0.0
8046 C 6.64 70.507 44.251 C 0.0 **** 0.0
8047 H 6.585 69.448 43.997 H 0.0 **** 0.0
8048 H 7.684 70.799 44.363 H 0.0 **** 0.0
8049 H 6.11 70.683 45.188 H 0.0 **** 0.0
8050 H 6.18 71.095 43.457 H 0.0 **** 0.0
8051 C 79.919 79.551 96.221 C 0.0 **** 0.0
8052 H 80.593 78.755 95.904 H 0.0 **** 0.0
8053 H 80.498 80.443 96.459 H 0.0 **** 0.0
8054 H 79.366 79.229 97.103 H 0.0 **** 0.0
8055 H 79.219 79.776 95.416 H 0.0 **** 0.0
8056 C 7.573 88.943 29.559 C 0.0 **** 0.0
8057 H 6.654 88.752 30.113 H 0.0 **** 0.0
8058 H 8.223 88.07 29.623 H 0.0 **** 0.0
8059 H 8.081 89.807 29.986 H 0.0 **** 0.0
8060 H 7.333 89.142 28.515 H 0.0 **** 0.0
8061 C 16.376 53.75 81.537 C 0.0 **** 0.0
8062 H 16.577 53.411 82.553 H 0.0 **** 0.0
8063 H 15.979 54.765 81.565 H 0.0 **** 0.0
8064 H 15.648 53.087 81.07 H 0.0 **** 0.0
8065 H 17.301 53.737 80.96 H 0.0 **** 0.0
8066 C 65.404 92.852 11.068 C 0.0 **** 0.0
8067 H 65.357 92.986 9.987 H 0.0 **** 0.0
8068 H 64.918 93.696 11.559 H 0.0 **** 0.0
8069 H 66.446 92.799 11.382 H 0.0 **** 0.0
8070 H 64.894 91.929 11.342 H 0.0 **** 0.0
8071 C 12.782 59.949 22.245 C 0.0 **** 0.0
8072 H 12.964 59.314 21.379 H 0.0 **** 0.0
8073 H 12.651 59.327 23.131 H 0.0 **** 0.0
8074 H 11.882 60.54 22.079 H 0.0 **** 0.0
8075 H 13.632 60.615 22.391 H 0.0 **** 0.0
8076 C 13.98 12.705 54.82 C 0.0 **** 0.0
8077 H 14.954 12.928 55.256 H 0.0 **** 0.0
8078 H 13.635 13.564 54.245 H 0.0 **** 0.0
8079 H 13.267 12.491 55.617 H 0.0 **** 0.0
8080 H 14.065 11.838 54.165 H 0.0 **** 0.0
8081 C 97.392 58.223 22.424 C 0.0 **** 0.0
8082 H 96.658 57.469 22.709 H 0.0 **** 0.0
8083 H 97.179 59.154 22.948 H 0.0 **** 0.0
8084 H 97.341 58.391 21.348 H 0.0 **** 0.0
8085 H 98.391 57.876 22.69 H 0.0 **** 0.0
8086 C 38.529 98.286 34.397 C 0.0 **** 0.0
8087 H 38.152 98.02 35.384 H 0.0 **** 0.0
8088 H 37.831 98.97 33.913 H 0.0 **** 0.0
8089 H 38.632 97.385 33.793 H 0.0 **** 0.0
8090 H 39.501 98.769 34.497 H 0.0 **** 0.0
8091 C 20.373 39.293 7.783 C 0.0 **** 0.0
8092 H 19.573 39.186 8.515 H 0.0 **** 0.0
8093 H 20.356 40.302 7.371 H 0.0 **** 0.0
8094 H 20.23 38.569 6.981 H 0.0 **** 0.0
8095 H 21.333 39.114 8.267 H 0.0 **** 0.0
8096 C 12.251 4.191 18.639 C 0.0 **** 0.0
8097 H 12.351 4.175 17.553 H 0.0 **** 0.0
8098 H 13.21 3.945 19.095 H 0.0 **** 0.0
8099 H 11.504 3.459 18.945 H 0.0 **** 0.0
8100 H 11.94 5.185 18.96 H 0.0 **** 0.0
8101 C 3.004 2.057 91.627 C 0.0 **** 0.0
8102 H 3.032 3.079 92.005 H 0.0 **** 0.0
8103 H 3.854 1.501 92.022 H 0.0 **** 0.0
8104 H 3.052 2.072 90.538 H 0.0 **** 0.0
8105 H 2.077 1.579 91.943 H 0.0 **** 0.0
8106 C 21.495 78.555 55.111 C 0.0 **** 0.0
8107 H 22.038 77.909 54.421 H 0.0 **** 0.0
8108 H 21.678 78.228 56.135 H 0.0 **** 0.0
8109 H 20.428 78.5 54.896 H 0.0 **** 0.0
8110 H 21.837 79.583 54.991 H 0.0 **** 0.0
8111 C 20.512 7.235 83.427 C 0.0 **** 0.0
8112 H 19.967 7.008 84.343 H 0.0 **** 0.0
8113 H 20.311 8.265 83.13 H 0.0 **** 0.0
8114 H 20.189 6.559 82.635 H 0.0 **** 0.0
8115 H 21.581 7.108 83.599 H 0.0 **** 0.0
8116 C 48.357 63.543 48.114 C 0.0 **** 0.0
8117 H 48.945 63.377 47.21 H 0.0 **** 0.0
8118 H 47.296 63.52 47.865 H 0.0 **** 0.0
8119 H 48.611 64.514 48.539 H 0.0 **** 0.0
8120 H 48.578 62.76 48.839 H 0.0 **** 0.0
8121 C 46.589 48.166 77.713 C 0.0 **** 0.0
8122 H 45.988 47.297 77.981 H 0.0 **** 0.0
8123 H 46.699 48.212 76.63 H 0.0 **** 0.0
8124 H 47.573 48.083 78.175 H 0.0 **** 0.0
8125 H 46.097 49.072 78.068 H 0.0 **** 0.0
8126 C 9.189 58.61 28.166 C 0.0 **** 0.0
8127 H 9.282 58.962 29.194 H 0.0 **** 0.0
8128 H 9.173 59.464 27.489 H 0.0 **** 0.0
8129 H 8.264 58.043 28.059 H 0.0 **** 0.0
8130 H 10.038 57.97 27.925 H 0.0 **** 0.0
8131 C 88.279 76.398 78.318 C 0.0 **** 0.0
8132 H 88.443 77.288 78.925 H 0.0 **** 0.0
8133 H 88.39 76.652 77.263 H 0.0 **** 0.0
8134 H 87.273 76.017 78.496 H 0.0 **** 0.0
8135 H 89.009 75.635 78.587 H 0.0 **** 0.0
8136 C 18.338 17.879 12.295 C 0.0 **** 0.0
8137 H 18.481 17.362 13.243 H 0.0 **** 0.0
8138 H 18.528 17.189 11.472 H 0.0 **** 0.0
8139 H 19.029 18.72 12.232 H 0.0 **** 0.0
8140 H 17.313 18.246 12.232 H 0.0 **** 0.0
8141 C 95.39 70.966 0.984 C 0.0 **** 0.0
8142 H 94.34 70.677 1.018 H 0.0 **** 0.0
8143 H 96.015 70.075 1.056 H 0.0 **** 0.0
8144 H 95.61 71.633 1.818 H 0.0 **** 0.0
8145 H 95.595 71.479 0.045 H 0.0 **** 0.0
8146 C 57.354 2.33 42.229 C 0.0 **** 0.0
8147 H 57.417 2.339 43.317 H 0.0 **** 0.0
8148 H 56.518 2.952 41.908 H 0.0 **** 0.0
8149 H 57.201 1.308 41.882 H 0.0 **** 0.0
8150 H 58.281 2.721 41.808 H 0.0 **** 0.0
8151 C 47.932 58.422 86.245 C 0.0 **** 0.0
8152 H 47.518 57.431 86.059 H 0.0 **** 0.0
8153 H 48.739 58.348 86.974 H 0.0 **** 0.0
8154 H 47.151 59.076 86.633 H 0.0 **** 0.0
8155 H 48.32 58.833 85.313 H 0.0 **** 0.0
8156 C 85.563 54.547 39.943 C 0.0 **** 0.0
8157 H 85.161 54.872 38.983 H 0.0 **** 0.0
8158 H 84.915 54.898 40.746 H 0.0 **** 0.0
8159 H 86.563 54.958 40.075 H 0.0 **** 0.0
8160 H 85.612 53.458 39.965 H 0.0 **** 0.0
8161 C 87.708 72.492 67.909 C 0.0 **** 0.0
8162 H 87.722 71.589 67.299 H 0.0 **** 0.0
8163 H 86.711 72.932 67.884 H 0.0 **** 0.0
8164 H 88.431 73.207 67.515 H 0.0 **** 0.0
8165 H 87.969 72.241 68.937 H 0.0 **** 0.0
8166 C 8.126 27.684 69.96 C 0.0 **** 0.0
8167 H 8.538 26.98 70.684 H 0.0 **** 0.0
8168 H 8.642 28.64 70.051 H 0.0 **** 0.0
8169 H 7.063 27.824 70.155 H 0.0 **** 0.0
8170 H 8.262 27.291 68.953 H 0.0 **** 0.0
8171 C 27.841 7.256 7.005 C 0.0 **** 0.0
8172 H 27.789 8.334 7.156 H 0.0 **** 0.0
8173 H 28.507 6.817 7.749 H 0.0 **** 0.0
8174 H 28.224 7.047 6.006 H 0.0 **** 0.0
8175 H 26.845 6.826 7.11 H 0.0 **** 0.0
8176 C 31.315 60.155 78.033 C 0.0 **** 0.0
8177 H 32.146 60.842 78.193 H 0.0 **** 0.0
8178 H 31.117 59.606 78.954 H 0.0 **** 0.0
8179 H 31.572 59.454 77.239 H 0.0 **** 0.0
8180 H 30.428 60.719 77.748 H 0.0 **** 0.0
8181 C 95.869 77.765 54.564 C 0.0 **** 0.0
8182 H 95.641 77.71 53.499 H 0.0 **** 0.0
8183 H 96.025 76.759 54.954 H 0.0 **** 0.0
8184 H 95.038 78.234 55.089 H 0.0 **** 0.0
8185 H 96.773 78.356 54.711 H 0.0 **** 0.0
8186 C 39.14 64.39 69.76 C 0.0 **** 0.0
8187 H 38.446 64.242 68.932 H 0.0 **** 0.0
8188 H 39.118 65.434 70.07 H 0.0 **** 0.0
8189 H 40.148 64.127 69.44 H 0.0 **** 0.0
8190 H 38.847 63.755 70.597 H 0.0 **** 0.0
8191 C 11.811 81.637 1.193 C 0.0 **** 0.0
8192 H 11.655 82.707 1.328 H 0.0 **** 0.0
8193 H 11.596 81.118 2.128 H 0.0 **** 0.0
8194 H 12.846 81.454 0.906 H 0.0 **** 0.0
8195 H 11.146 81.269 0.412 H 0.0 **** 0.0
8196 C 20.169 36.483 63.684 C 0.0 **** 0.0
8197 H 19.814 36.831 64.654 H 0.0 **** 0.0
8198 H 21.236 36.267 63.744 H 0.0 **** 0.0
8199 H 19.996 37.256 62.935 H 0.0 **** 0.0
8200 H 19.63 35.578 63.404 H 0.0 **** 0.0
8201 C 78.668 80.058 47.436 C 0.0 **** 0.0
8202 H 79.367 80.12 46.602 H 0.0 **** 0.0
8203 H 77.66 79.892 47.055 H 0.0 **** 0.0
8204 H 78.693 80.991 48.001 H 0.0 **** 0.0
8205 H 78.952 79.232 48.088 H 0.0 **** 0.0
8206 C 2.791 56.242 95.86 C 0.0 **** 0.0
8207 H 2.698 57.171 95.298 H 0.0 **** 0.0
8208 H 2.0 56.19 96.609 H 0.0 **** 0.0
8209 H 3.762 56.213 96.354 H 0.0 **** 0.0
8210 H 2.704 55.396 95.179 H 0.0 **** 0.0
8211 C 55.003 95.079 96.521 C 0.0 **** 0.0
8212 H 54.232 95.173 95.756 H 0.0 **** 0.0
8213 H 55.931 95.519 96.157 H 0.0 **** 0.0
8214 H 55.164 94.025 96.747 H 0.0 **** 0.0
8215 H 54.683 95.599 97.424 H 0.0 **** 0.0
8216 C 59.503 66.079 59.437 C 0.0 **** 0.0
8217 H 58.798 65.252 59.347 H 0.0 **** 0.0
8218 H 59.547 66.407 60.476 H 0.0 **** 0.0
8219 H 59.173 66.907 58.809 H 0.0 **** 0.0
8220 H 60.491 65.751 59.116 H 0.0 **** 0.0
8221 C 61.547 44.726 53.713 C 0.0 **** 0.0
8222 H 60.564 44.323 53.47 H 0.0 **** 0.0
8223 H 62.263 44.42 52.95 H 0.0 **** 0.0
8224 H 61.865 44.346 54.684 H 0.0 **** 0.0
8225 H 61.496 45.814 53.747 H 0.0 **** 0.0
8226 C 17.925 3.609 63.076 C 0.0 **** 0.0
8227 H 18.084 4.605 63.488 H 0.0 **** 0.0
8228 H 18.05 3.639 61.994 H 0.0 **** 0.0
8229 H 16.916 3.274 63.317 H 0.0 **** 0.0
8230 H 18.649 2.917 63.507 H 0.0 **** 0.0
8231 C 53.722 4.202 8.452 C 0.0 **** 0.0
8232 H 54.148 4.832 7.671 H 0.0 **** 0.0
8233 H 53.983 4.609 9.429 H 0.0 **** 0.0
8234 H 54.119 3.191 8.361 H 0.0 **** 0.0
8235 H 52.637 4.177 8.347 H 0.0 **** 0.0
8236 C 74.78 98.48 16.201 C 0.0 **** 0.0
8237 H 73.797 98.949 16.166 H 0.0 **** 0.0
8238 H 74.695 97.435 15.901 H 0.0 **** 0.0
8239 H 75.173 98.536 17.216 H 0.0 **** 0.0
8240 H 75.455 98.999 15.521 H 0.0 **** 0.0
8241 C 73.167 15.208 88.993 C 0.0 **** 0.0
8242 H 72.331 15.436 89.654 H 0.0 **** 0.0
8243 H 73.444 14.159 89.107 H 0.0 **** 0.0
8244 H 74.017 15.838 89.254 H 0.0 **** 0.0
8245 H 72.876 15.398 87.96 H 0.0 **** 0.0
8246 C 9.172 36.425 48.71 C 0.0 **** 0.0
8247 H 8.685 37.271 48.225 H 0.0 **** 0.0
8248 H 9.41 35.667 47.963 H 0.0 **** 0.0
8249 H 8.504 36.001 49.459 H 0.0 **** 0.0
8250 H 10.091 36.762 49.19 H 0.0 **** 0.0
8251 C 68.557 31.718 14.589 C 0.0 **** 0.0
8252 H 68.692 30.964 15.364 H 0.0 **** 0.0
8253 H 68.044 32.584 15.011 H 0.0 **** 0.0
8254 H 67.96 31.302 13.778 H 0.0 **** 0.0
8255 H 69.53 32.023 14.205 H 0.0 **** 0.0
8256 C 86.505 29.066 85.023 C 0.0 **** 0.0
8257 H 86.565 28.352 84.201 H 0.0 **** 0.0
8258 H 87.39 29.703 85.014 H 0.0 **** 0.0
8259 H 86.454 28.527 85.969 H 0.0 **** 0.0
8260 H 85.613 29.68 84.906 H 0.0 **** 0.0
8261 C 90.853 87.678 74.712 C 0.0 **** 0.0
8262 H 90.851 87.672 75.802 H 0.0 **** 0.0
8263 H 90.649 86.673 74.343 H 0.0 **** 0.0
8264 H 91.829 88.007 74.353 H 0.0 **** 0.0
8265 H 90.084 88.362 74.352 H 0.0 **** 0.0
8266 C 54.876 80.001 0.849 C 0.0 **** 0.0
8267 H 54.199 79.882 0.003 H 0.0 **** 0.0
8268 H 55.904 79.856 0.515 H 0.0 **** 0.0
8269 H 54.634 79.262 1.613 H 0.0 **** 0.0
8270 H 54.766 81.003 1.264 H 0.0 **** 0.0
8271 C 23.651 37.277 47.009 C 0.0 **** 0.0
8272 H 24.356 36.447 46.964 H 0.0 **** 0.0
8273 H 23.239 37.458 46.015 H 0.0 **** 0.0
8274 H 24.165 38.172 47.358 H 0.0 **** 0.0
8275 H 22.843 37.03 47.698 H 0.0 **** 0.0
8276 C 64.474 4.94 46.267 C 0.0 **** 0.0
8277 H 63.938 4.133 45.769 H 0.0 **** 0.0
8278 H 63.966 5.193 47.198 H 0.0 **** 0.0
8279 H 64.498 5.815 45.617 H 0.0 **** 0.0
8280 H 65.493 4.62 46.484 H 0.0 **** 0.0
8281 C 13.369 15.446 75.685 C 0.0 **** 0.0
8282 H 14.098 16.234 75.877 H 0.0 **** 0.0
8283 H 12.365 15.826 75.879 H 0.0 **** 0.0
8284 H 13.569 14.598 76.34 H 0.0 **** 0.0
8285 H 13.443 15.129 74.645 H 0.0 **** 0.0
8286 C 3.804 65.531 90.445 C 0.0 **** 0.0
8287 H 4.716 65.465 89.852 H 0.0 **** 0.0
8288 H 4.062 65.624 91.5 H 0.0 **** 0.0
8289 H 3.207 64.631 90.295 H 0.0 **** 0.0
8290 H 3.23 66.404 90.133 H 0.0 **** 0.0
8291 C 23.926 49.063 49.802 C 0.0 **** 0.0
8292 H 23.424 49.853 50.36 H 0.0 **** 0.0
8293 H 23.551 48.093 50.13 H 0.0 **** 0.0
8294 H 25.0 49.118 49.982 H 0.0 **** 0.0
8295 H 23.729 49.188 48.738 H 0.0 **** 0.0
8296 C 6.579 87.31 5.016 C 0.0 **** 0.0
8297 H 6.874 87.18 3.975 H 0.0 **** 0.0
8298 H 6.931 88.278 5.375 H 0.0 **** 0.0
8299 H 7.018 86.516 5.62 H 0.0 **** 0.0
8300 H 5.492 87.267 5.094 H 0.0 **** 0.0
8301 C 96.901 95.119 68.991 C 0.0 **** 0.0
8302 H 97.291 94.718 68.055 H 0.0 **** 0.0
8303 H 97.73 95.445 69.619 H 0.0 **** 0.0
8304 H 96.334 94.346 69.509 H 0.0 **** 0.0
8305 H 96.25 95.967 68.779 H 0.0 **** 0.0
8306 C 26.811 64.31 34.687 C 0.0 **** 0.0
8307 H 26.783 64.329 35.776 H 0.0 **** 0.0
8308 H 27.476 65.095 34.327 H 0.0 **** 0.0
8309 H 25.807 64.476 34.295 H 0.0 **** 0.0
8310 H 27.177 63.34 34.35 H 0.0 **** 0.0
8311 C 44.117 57.336 66.354 C 0.0 **** 0.0
8312 H 45.158 57.056 66.517 H 0.0 **** 0.0
8313 H 43.985 58.394 66.583 H 0.0 **** 0.0
8314 H 43.475 56.74 67.002 H 0.0 **** 0.0
8315 H 43.851 57.154 65.312 H 0.0 **** 0.0
8316 C 4.328 85.34 59.305 C 0.0 **** 0.0
8317 H 3.455 84.903 58.82 H 0.0 **** 0.0
8318 H 4.991 85.761 58.549 H 0.0 **** 0.0
8319 H 4.857 84.568 59.864 H 0.0 **** 0.0
8320 H 4.008 86.127 59.987 H 0.0 **** 0.0
8321 C 73.739 41.372 25.4 C 0.0 **** 0.0
8322 H 74.604 40.725 25.55 H 0.0 **** 0.0
8323 H 73.0 40.853 24.79 H 0.0 **** 0.0
8324 H 74.052 42.285 24.894 H 0.0 **** 0.0
8325 H 73.301 41.623 26.366 H 0.0 **** 0.0
8326 C 94.219 13.49 26.212 C 0.0 **** 0.0
8327 H 93.77 12.836 26.959 H 0.0 **** 0.0
8328 H 95.117 13.95 26.625 H 0.0 **** 0.0
8329 H 93.508 14.267 25.934 H 0.0 **** 0.0
8330 H 94.483 12.906 25.33 H 0.0 **** 0.0
8331 C 27.424 42.801 2.191 C 0.0 **** 0.0
8332 H 27.865 43.033 1.221 H 0.0 **** 0.0
8333 H 26.456 43.295 2.276 H 0.0 **** 0.0
8334 H 28.084 43.154 2.983 H 0.0 **** 0.0
8335 H 27.292 41.723 2.281 H 0.0 **** 0.0
8336 C 26.016 85.387 22.204 C 0.0 **** 0.0
8337 H 25.962 85.281 23.288 H 0.0 **** 0.0
8338 H 26.964 85.851 21.931 H 0.0 **** 0.0
8339 H 25.193 86.013 21.86 H 0.0 **** 0.0
8340 H 25.945 84.404 21.739 H 0.0 **** 0.0
8341 C 21.636 76.725 27.885 C 0.0 **** 0.0
8342 H 21.587 76.806 26.799 H 0.0 **** 0.0
8343 H 21.09 75.839 28.208 H 0.0 **** 0.0
8344 H 21.189 77.612 28.335 H 0.0 **** 0.0
8345 H 22.677 76.645 28.196 H 0.0 **** 0.0
8346 C 15.389 70.502 85.501 C 0.0 **** 0.0
8347 H 14.736 70.157 86.302 H 0.0 **** 0.0
8348 H 14.992 70.171 84.541 H 0.0 **** 0.0
8349 H 16.388 70.09 85.643 H 0.0 **** 0.0
8350 H 15.44 71.591 85.518 H 0.0 **** 0.0
8351 C 53.115 38.058 61.245 C 0.0 **** 0.0
8352 H 53.213 37.164 60.629 H 0.0 **** 0.0
8353 H 52.521 38.802 60.713 H 0.0 **** 0.0
8354 H 54.104 38.465 61.455 H 0.0 **** 0.0
8355 H 52.622 37.801 62.182 H 0.0 **** 0.0
8356 C 70.497 31.356 6.699 C 0.0 **** 0.0
8357 H 70.445 31.895 5.753 H 0.0 **** 0.0
8358 H 69.519 31.375 7.182 H 0.0 **** 0.0
8359 H 71.232 31.83 7.348 H 0.0 **** 0.0
8360 H 70.79 30.323 6.512 H 0.0 **** 0.0
8361 C 83.948 43.798 52.156 C 0.0 **** 0.0
8362 H 83.495 44.145 51.228 H 0.0 **** 0.0
8363 H 83.925 42.708 52.187 H 0.0 **** 0.0
8364 H 83.391 44.198 53.003 H 0.0 **** 0.0
8365 H 84.982 44.141 52.206 H 0.0 **** 0.0
8366 C 77.723 89.14 95.353 C 0.0 **** 0.0
8367 H 78.441 88.57 94.763 H 0.0 **** 0.0
8368 H 77.574 88.649 96.315 H 0.0 **** 0.0
8369 H 76.774 89.191 94.819 H 0.0 **** 0.0
8370 H 78.104 90.148 95.514 H 0.0 **** 0.0
8371 C 79.794 57.143 71.937 C 0.0 **** 0.0
8372 H 79.598 58.106 72.409 H 0.0 **** 0.0
8373 H 79.712 56.351 72.681 H 0.0 **** 0.0
8374 H 80.799 57.143 71.515 H 0.0 **** 0.0
8375 H 79.066 56.974 71.143 H 0.0 **** 0.0
8376 C 13.153 2.458 11.693 C 0.0 **** 0.0
8377 H 12.074 2.553 11.565 H 0.0 **** 0.0
8378 H 13.527 1.664 11.046 H 0.0 **** 0.0
8379 H 13.374 2.215 12.733 H 0.0 **** 0.0
8380 H 13.634 3.399 11.43 H 0.0 **** 0.0
8381 C 63.141 60.093 44.33 C 0.0 **** 0.0
8382 H 63.338 59.811 43.296 H 0.0 **** 0.0
8383 H 62.254 60.726 44.371 H 0.0 **** 0.0
8384 H 63.997 60.638 44.727 H 0.0 **** 0.0
8385 H 62.974 59.194 44.925 H 0.0 **** 0.0
8386 C 32.776 73.277 48.264 C 0.0 **** 0.0
8387 H 33.287 74.169 48.626 H 0.0 **** 0.0
8388 H 31.719 73.501 48.114 H 0.0 **** 0.0
8389 H 32.878 72.477 48.997 H 0.0 **** 0.0
8390 H 33.219 72.963 47.319 H 0.0 **** 0.0
8391 C 9.456 3.305 34.685 C 0.0 **** 0.0
8392 H 10.121 2.597 34.189 H 0.0 **** 0.0
8393 H 9.749 3.408 35.73 H 0.0 **** 0.0
8394 H 8.431 2.94 34.629 H 0.0 **** 0.0
8395 H 9.525 4.274 34.191 H 0.0 **** 0.0
8396 C 26.566 89.912 40.08 C 0.0 **** 0.0
8397 H 27.087 89.247 39.391 H 0.0 **** 0.0
8398 H 26.162 90.761 39.529 H 0.0 **** 0.0
8399 H 27.263 90.268 40.838 H 0.0 **** 0.0
8400 H 25.752 89.37 40.561 H 0.0 **** 0.0
8401 C 21.024 43.473 31.779 C 0.0 **** 0.0
8402 H 20.717 43.483 30.733 H 0.0 **** 0.0
8403 H 21.409 42.486 32.035 H 0.0 **** 0.0
8404 H 20.166 43.704 32.411 H 0.0 **** 0.0
8405 H 21.802 44.219 31.936 H 0.0 **** 0.0
8406 C 43.428 70.957 69.792 C 0.0 **** 0.0
8407 H 43.785 70.11 69.207 H 0.0 **** 0.0
8408 H 42.435 70.737 70.182 H 0.0 **** 0.0
8409 H 43.382 71.842 69.158 H 0.0 **** 0.0
8410 H 44.112 71.14 70.621 H 0.0 **** 0.0
8411 C 60.117 69.27 16.302 C 0.0 **** 0.0
8412 H 59.046 69.159 16.467 H 0.0 **** 0.0
8413 H 60.35 70.319 16.123 H 0.0 **** 0.0
8414 H 60.415 68.678 15.437 H 0.0 **** 0.0
8415 H 60.658 68.923 17.183 H 0.0 **** 0.0
8416 C 6.203 79.846 53.403 C 0.0 **** 0.0
8417 H 6.315 80.16 54.441 H 0.0 **** 0.0
8418 H 6.318 78.764 53.337 H 0.0 **** 0.0
8419 H 6.964 80.33 52.793 H 0.0 **** 0.0
8420 H 5.214 80.129 53.043 H 0.0 **** 0.0
8421 C 28.406 12.944 96.645 C 0.0 **** 0.0
8422 H 27.33 13.117 96.653 H 0.0 **** 0.0
8423 H 28.631 12.03 97.195 H 0.0 **** 0.0
8424 H 28.913 13.786 97.117 H 0.0 **** 0.0
8425 H 28.75 12.844 95.616 H 0.0 **** 0.0
8426 C 61.108 94.685 21.839 C 0.0 **** 0.0
8427 H 61.892 93.94 21.978 H 0.0 **** 0.0
8428 H 61.289 95.53 22.504 H 0.0 **** 0.0
8429 H 60.14 94.241 22.07 H 0.0 **** 0.0
8430 H 61.113 95.028 20.804 H 0.0 **** 0.0
8431 C 61.951 13.767 97.132 C 0.0 **** 0.0
8432 H 62.094 13.659 98.207 H 0.0 **** 0.0
8433 H 62.66 14.499 96.744 H 0.0 **** 0.0
8434 H 60.934 14.105 96.933 H 0.0 **** 0.0
8435 H 62.118 12.806 96.646 H 0.0 **** 0.0
8436 C 85.349 26.602 46.564 C 0.0 **** 0.0
8437 H 84.603 25.886 46.22 H 0.0 **** 0.0
8438 H 85.795 27.103 45.704 H 0.0 **** 0.0
8439 H 86.125 26.078 47.122 H 0.0 **** 0.0
8440 H 84.873 27.341 47.209 H 0.0 **** 0.0
8441 C 87.58 71.161 55.365 C 0.0 **** 0.0
8442 H 87.003 70.381 55.861 H 0.0 **** 0.0
8443 H 88.502 70.734 54.969 H 0.0 **** 0.0
8444 H 87.822 71.945 56.083 H 0.0 **** 0.0
8445 H 86.994 71.583 54.549 H 0.0 **** 0.0
8446 C 64.338 75.703 47.426 C 0.0 **** 0.0
8447 H 64.385 76.491 48.178 H 0.0 **** 0.0
8448 H 64.876 74.826 47.786 H 0.0 **** 0.0
8449 H 64.795 76.057 46.501 H 0.0 **** 0.0
8450 H 63.297 75.441 47.24 H 0.0 **** 0.0
8451 C 63.783 91.27 85.811 C 0.0 **** 0.0
8452 H 63.597 91.71 86.791 H 0.0 **** 0.0
8453 H 62.832 91.047 85.327 H 0.0 **** 0.0
8454 H 64.355 90.349 85.929 H 0.0 **** 0.0
8455 H 64.348 91.972 85.199 H 0.0 **** 0.0
8456 C 64.196 70.406 6.252 C 0.0 **** 0.0
8457 H 64.053 69.325 6.233 H 0.0 **** 0.0
8458 H 63.256 70.901 6.008 H 0.0 **** 0.0
8459 H 64.955 70.684 5.522 H 0.0 **** 0.0
8460 H 64.52 70.711 7.247 H 0.0 **** 0.0
8461 C 92.079 34.263 16.245 C 0.0 **** 0.0
8462 H 93.083 34.66 16.094 H 0.0 **** 0.0
8463 H 91.686 33.899 15.296 H 0.0 **** 0.0
8464 H 91.431 35.051 16.629 H 0.0 **** 0.0
8465 H 92.118 33.443 16.962 H 0.0 **** 0.0
8466 C 85.256 87.923 87.457 C 0.0 **** 0.0
8467 H 85.391 87.946 86.376 H 0.0 **** 0.0
8468 H 84.579 88.724 87.755 H 0.0 **** 0.0
8469 H 86.22 88.06 87.946 H 0.0 **** 0.0
8470 H 84.833 86.962 87.749 H 0.0 **** 0.0
8471 C 46.512 16.793 39.048 C 0.0 **** 0.0
8472 H 47.122 17.261 38.275 H 0.0 **** 0.0
8473 H 46.618 15.71 38.988 H 0.0 **** 0.0
8474 H 45.467 17.065 38.9 H 0.0 **** 0.0
8475 H 46.842 17.137 40.028 H 0.0 **** 0.0
8476 C 88.341 46.411 82.372 C 0.0 **** 0.0
8477 H 89.321 45.935 82.322 H 0.0 **** 0.0
8478 H 87.866 46.365 81.392 H 0.0 **** 0.0
8479 H 88.459 47.453 82.671 H 0.0 **** 0.0
8480 H 87.721 45.891 83.102 H 0.0 **** 0.0
8481 C 63.44 20.603 17.253 C 0.0 **** 0.0
8482 H 63.748 20.912 16.254 H 0.0 **** 0.0
8483 H 63.933 21.231 17.996 H 0.0 **** 0.0
8484 H 63.721 19.562 17.414 H 0.0 **** 0.0
8485 H 62.359 20.707 17.348 H 0.0 **** 0.0
8486 C 95.222 70.196 32.663 C 0.0 **** 0.0
8487 H 94.516 69.419 32.954 H 0.0 **** 0.0
8488 H 96.128 69.734 32.27 H 0.0 **** 0.0
8489 H 95.471 70.804 33.533 H 0.0 **** 0.0
8490 H 94.773 70.827 31.896 H 0.0 **** 0.0
8491 C 73.147 92.241 3.838 C 0.0 **** 0.0
8492 H 73.845 92.742 3.168 H 0.0 **** 0.0
8493 H 73.165 91.168 3.645 H 0.0 **** 0.0
8494 H 72.141 92.625 3.668 H 0.0 **** 0.0
8495 H 73.437 92.43 4.872 H 0.0 **** 0.0
8496 C 17.622 21.889 11.113 C 0.0 **** 0.0
8497 H 17.045 22.243 10.259 H 0.0 **** 0.0
8498 H 18.316 22.667 11.43 H 0.0 **** 0.0
8499 H 18.181 20.997 10.828 H 0.0 **** 0.0
8500 H 16.946 21.648 11.933 H 0.0 **** 0.0
8501 C 6.78 1.958 16.009 C 0.0 **** 0.0
8502 H 6.613 2.039 17.083 H 0.0 **** 0.0
8503 H 6.216 1.112 15.616 H 0.0 **** 0.0
8504 H 7.842 1.808 15.817 H 0.0 **** 0.0
8505 H 6.448 2.874 15.52 H 0.0 **** 0.0
8506 C 54.489 20.886 22.355 C 0.0 **** 0.0
8507 H 54.094 20.985 23.366 H 0.0 **** 0.0
8508 H 55.36 21.531 22.24 H 0.0 **** 0.0
8509 H 53.723 21.177 21.636 H 0.0 **** 0.0
8510 H 54.778 19.85 22.179 H 0.0 **** 0.0
8511 C 25.875 91.108 62.702 C 0.0 **** 0.0
8512 H 25.833 90.525 61.782 H 0.0 **** 0.0
8513 H 26.637 91.881 62.608 H 0.0 **** 0.0
8514 H 26.123 90.451 63.536 H 0.0 **** 0.0
8515 H 24.905 91.572 62.882 H 0.0 **** 0.0
8516 C 28.607 68.711 92.442 C 0.0 **** 0.0
8517 H 28.567 68.692 91.353 H 0.0 **** 0.0
8518 H 28.838 67.712 92.814 H 0.0 **** 0.0
8519 H 27.643 69.032 92.835 H 0.0 **** 0.0
8520 H 29.381 69.407 92.765 H 0.0 **** 0.0
8521 C 39.55 3.695 91.341 C 0.0 **** 0.0
8522 H 40.003 3.954 90.384 H 0.0 **** 0.0
8523 H 39.35 4.606 91.906 H 0.0 **** 0.0
8524 H 40.232 3.059 91.905 H 0.0 **** 0.0
8525 H 38.615 3.162 91.167 H 0.0 **** 0.0
8526 C 2.914 1.786 36.68 C 0.0 **** 0.0
8527 H 1.843 1.626 36.804 H 0.0 **** 0.0
8528 H 3.162 2.81 36.959 H 0.0 **** 0.0
8529 H 3.188 1.615 35.639 H 0.0 **** 0.0
8530 H 3.461 1.092 37.319 H 0.0 **** 0.0
8531 C 78.109 11.547 61.972 C 0.0 **** 0.0
8532 H 78.094 11.508 63.061 H 0.0 **** 0.0
8533 H 79.048 11.13 61.606 H 0.0 **** 0.0
8534 H 78.018 12.582 61.644 H 0.0 **** 0.0
8535 H 77.275 10.966 61.577 H 0.0 **** 0.0
8536 C 76.522 80.497 24.166 C 0.0 **** 0.0
8537 H 77.085 80.289 23.256 H 0.0 **** 0.0
8538 H 76.069 81.486 24.094 H 0.0 **** 0.0
8539 H 77.194 80.466 25.023 H 0.0 **** 0.0
8540 H 75.741 79.747 24.289 H 0.0 **** 0.0
8541 C 6.048 91.578 62.424 C 0.0 **** 0.0
8542 H 6.505 91.132 63.307 H 0.0 **** 0.0
8543 H 5.106 92.051 62.702 H 0.0 **** 0.0
8544 H 5.86 90.802 61.681 H 0.0 **** 0.0
8545 H 6.721 92.326 62.005 H 0.0 **** 0.0
8546 C 42.12 12.095 46.69 C 0.0 **** 0.0
8547 H 42.157 11.006 46.691 H 0.0 **** 0.0
8548 H 43.064 12.491 47.064 H 0.0 **** 0.0
8549 H 41.304 12.431 47.33 H 0.0 **** 0.0
8550 H 41.953 12.451 45.673 H 0.0 **** 0.0
8551 C 52.906 50.952 10.559 C 0.0 **** 0.0
8552 H 52.353 50.131 10.103 H 0.0 **** 0.0
8553 H 53.619 51.354 9.839 H 0.0 **** 0.0
8554 H 53.441 50.587 11.436 H 0.0 **** 0.0
8555 H 52.21 51.736 10.859 H 0.0 **** 0.0
8556 C 15.628 19.433 15.823 C 0.0 **** 0.0
8557 H 14.648 19.855 16.046 H 0.0 **** 0.0
8558 H 15.543 18.35 15.725 H 0.0 **** 0.0
8559 H 16.319 19.672 16.632 H 0.0 **** 0.0
8560 H 16.001 19.855 14.89 H 0.0 **** 0.0
8561 C 59.242 10.295 5.306 C 0.0 **** 0.0
8562 H 58.951 11.081 6.001 H 0.0 **** 0.0
8563 H 59.705 9.476 5.857 H 0.0 **** 0.0
8564 H 59.954 10.694 4.583 H 0.0 **** 0.0
8565 H 58.36 9.928 4.782 H 0.0 **** 0.0
8566 C 28.663 58.951 56.476 C 0.0 **** 0.0
8567 H 28.85 58.123 57.16 H 0.0 **** 0.0
8568 H 28.921 58.648 55.461 H 0.0 **** 0.0
8569 H 29.273 59.807 56.766 H 0.0 **** 0.0
8570 H 27.609 59.225 56.517 H 0.0 **** 0.0
8571 C 76.879 92.13 82.051 C 0.0 **** 0.0
8572 H 76.922 92.889 81.27 H 0.0 **** 0.0
8573 H 77.012 91.144 81.607 H 0.0 **** 0.0
8574 H 75.911 92.177 82.55 H 0.0 **** 0.0
8575 H 77.671 92.312 82.778 H 0.0 **** 0.0
8576 C 74.278 3.029 58.74 C 0.0 **** 0.0
8577 H 74.025 2.221 58.054 H 0.0 **** 0.0
8578 H 73.368 3.555 59.032 H 0.0 **** 0.0
8579 H 74.958 3.724 58.249 H 0.0 **** 0.0
8580 H 74.759 2.615 59.627 H 0.0 **** 0.0
8581 C 2.594 56.231 89.984 C 0.0 **** 0.0
8582 H 2.882 56.107 91.028 H 0.0 **** 0.0
8583 H 2.56 55.255 89.498 H 0.0 **** 0.0
8584 H 3.323 56.864 89.479 H 0.0 **** 0.0
8585 H 1.61 56.697 89.932 H 0.0 **** 0.0
8586 C 22.255 78.685 78.851 C 0.0 **** 0.0
8587 H 22.311 78.738 79.938 H 0.0 **** 0.0
8588 H 21.302 78.244 78.558 H 0.0 **** 0.0
8589 H 23.072 78.069 78.475 H 0.0 **** 0.0
8590 H 22.335 79.689 78.434 H 0.0 **** 0.0
8591 C 74.453 12.263 64.138 C 0.0 **** 0.0
8592 H 74.505 12.255 65.226 H 0.0 **** 0.0
8593 H 74.997 13.127 63.754 H 0.0 **** 0.0
8594 H 73.411 12.321 63.825 H 0.0 **** 0.0
8595 H 74.9 11.349 63.746 H 0.0 **** 0.0
8596 C 82.288 25.303 64.939 C 0.0 **** 0.0
8597 H 82.525 26.146 65.589 H 0.0 **** 0.0
8598 H 81.264 25.398 64.58 H 0.0 **** 0.0
8599 H 82.393 24.373 65.498 H 0.0 **** 0.0
8600 H 82.973 25.296 64.091 H 0.0 **** 0.0
8601 C 10.705 51.642 94.372 C 0.0 **** 0.0
8602 H 11.415 51.323 95.136 H 0.0 **** 0.0
8603 H 10.031 50.819 94.137 H 0.0 **** 0.0
8604 H 11.247 51.936 93.473 H 0.0 **** 0.0
8605 H 10.13 52.49 94.743 H 0.0 **** 0.0
8606 C 57.425 50.564 20.066 C 0.0 **** 0.0
8607 H 57.056 51.572 19.876 H 0.0 **** 0.0
8608 H 57.433 50.376 21.139 H 0.0 **** 0.0
8609 H 58.437 50.467 19.672 H 0.0 **** 0.0
8610 H 56.774 49.841 19.575 H 0.0 **** 0.0
8611 C 53.922 15.79 6.863 C 0.0 **** 0.0
8612 H 54.06 15.842 7.943 H 0.0 **** 0.0
8613 H 52.926 16.15 6.606 H 0.0 **** 0.0
8614 H 54.033 14.758 6.533 H 0.0 **** 0.0
8615 H 54.671 16.412 6.372 H 0.0 **** 0.0
8616 C 46.252 79.895 88.233 C 0.0 **** 0.0
8617 H 45.746 79.723 89.182 H 0.0 **** 0.0
8618 H 45.512 80.078 87.454 H 0.0 **** 0.0
8619 H 46.844 79.017 87.973 H 0.0 **** 0.0
8620 H 46.908 80.762 88.322 H 0.0 **** 0.0
8621 C 96.73 48.305 93.334 C 0.0 **** 0.0
8622 H 96.812 48.258 92.248 H 0.0 **** 0.0
8623 H 97.711 48.509 93.764 H 0.0 **** 0.0
8624 H 96.359 47.352 93.711 H 0.0 **** 0.0
8625 H 96.038 49.1 93.613 H 0.0 **** 0.0
8626 C 36.921 81.206 62.599 C 0.0 **** 0.0
8627 H 36.682 81.467 63.629 H 0.0 **** 0.0
8628 H 37.747 80.494 62.587 H 0.0 **** 0.0
8629 H 37.208 82.105 62.053 H 0.0 **** 0.0
8630 H 36.047 80.757 62.126 H 0.0 **** 0.0
8631 C 10.438 47.04 96.753 C 0.0 **** 0.0
8632 H 10.512 46.517 95.8 H 0.0 **** 0.0
8633 H 9.692 47.831 96.676 H 0.0 **** 0.0
8634 H 11.405 47.475 97.004 H 0.0 **** 0.0
8635 H 10.144 46.336 97.531 H 0.0 **** 0.0
8636 C 85.701 49.059 77.07 C 0.0 **** 0.0
8637 H 86.38 49.201 76.229 H 0.0 **** 0.0
8638 H 85.512 50.019 77.55 H 0.0 **** 0.0
8639 H 86.153 48.375 77.789 H 0.0 **** 0.0
8640 H 84.761 48.64 76.711 H 0.0 **** 0.0
8641 C 4.988 36.277 16.635 C 0.0 **** 0.0
8642 H 4.726 36.202 17.69 H 0.0 **** 0.0
8643 H 5.931 36.814 16.532 H 0.0 **** 0.0
8644 H 4.202 36.815 16.104 H 0.0 **** 0.0
8645 H 5.091 35.277 16.214 H 0.0 **** 0.0
8646 C 74.925 42.95 28.806 C 0.0 **** 0.0
8647 H 75.141 41.889 28.934 H 0.0 **** 0.0
8648 H 73.973 43.186 29.283 H 0.0 **** 0.0
8649 H 74.867 43.182 27.743 H 0.0 **** 0.0
8650 H 75.718 43.54 29.264 H 0.0 **** 0.0
8651 C 96.244 30.087 82.974 C 0.0 **** 0.0
8652 H 96.121 29.383 83.798 H 0.0 **** 0.0
8653 H 95.836 31.056 83.261 H 0.0 **** 0.0
8654 H 95.716 29.715 82.097 H 0.0 **** 0.0
8655 H 97.304 30.192 82.743 H 0.0 **** 0.0
8656 C 14.377 12.085 61.891 C 0.0 **** 0.0
8657 H 13.546 11.654 61.332 H 0.0 **** 0.0
8658 H 14.015 12.459 62.849 H 0.0 **** 0.0
8659 H 14.812 12.906 61.32 H 0.0 **** 0.0
8660 H 15.135 11.32 62.062 H 0.0 **** 0.0
8661 C 2.164 39.346 38.464 C 0.0 **** 0.0
8662 H 1.974 40.25 39.044 H 0.0 **** 0.0
8663 H 1.572 38.525 38.868 H 0.0 **** 0.0
8664 H 3.223 39.095 38.522 H 0.0 **** 0.0
8665 H 1.888 39.518 37.424 H 0.0 **** 0.0
8666 C 64.555 52.183 61.19 C 0.0 **** 0.0
8667 H 64.433 52.088 60.111 H 0.0 **** 0.0
8668 H 65.484 51.7 61.495 H 0.0 **** 0.0
8669 H 63.714 51.706 61.694 H 0.0 **** 0.0
8670 H 64.588 53.238 61.46 H 0.0 **** 0.0
8671 C 84.144 47.49 74.566 C 0.0 **** 0.0
8672 H 83.391 47.497 75.355 H 0.0 **** 0.0
8673 H 84.195 48.476 74.104 H 0.0 **** 0.0
8674 H 83.874 46.749 73.813 H 0.0 **** 0.0
8675 H 85.114 47.237 74.993 H 0.0 **** 0.0
8676 C 3.619 72.967 10.017 C 0.0 **** 0.0
8677 H 3.044 72.784 10.925 H 0.0 **** 0.0
8678 H 2.941 73.031 9.166 H 0.0 **** 0.0
8679 H 4.322 72.149 9.861 H 0.0 **** 0.0
8680 H 4.167 73.903 10.117 H 0.0 **** 0.0
8681 C 39.809 58.132 25.557 C 0.0 **** 0.0
8682 H 39.428 58.141 24.536 H 0.0 **** 0.0
8683 H 40.735 57.558 25.595 H 0.0 **** 0.0
8684 H 39.07 57.675 26.216 H 0.0 **** 0.0
8685 H 40.002 59.155 25.882 H 0.0 **** 0.0
8686 C 57.208 29.706 50.78 C 0.0 **** 0.0
8687 H 57.048 30.019 49.748 H 0.0 **** 0.0
8688 H 57.433 28.64 50.805 H 0.0 **** 0.0
8689 H 56.307 29.901 51.362 H 0.0 **** 0.0
8690 H 58.042 30.264 51.204 H 0.0 **** 0.0
8691 C 25.137 42.952 19.109 C 0.0 **** 0.0
8692 H 25.218 43.068 20.19 H 0.0 **** 0.0
8693 H 25.997 42.393 18.739 H 0.0 **** 0.0
8694 H 25.112 43.935 18.64 H 0.0 **** 0.0
8695 H 24.222 42.411 18.87 H 0.0 **** 0.0
8696 C 37.104 74.969 85.649 C 0.0 **** 0.0
8697 H 37.206 74.911 84.565 H 0.0 **** 0.0
8698 H 37.997 74.558 86.119 H 0.0 **** 0.0
8699 H 36.231 74.395 85.962 H 0.0 **** 0.0
8700 H 36.981 76.01 85.947 H 0.0 **** 0.0
8701 C 45.449 42.726 37.096 C 0.0 **** 0.0
8702 H 44.859 41.907 36.685 H 0.0 **** 0.0
8703 H 46.458 42.689 36.684 H 0.0 **** 0.0
8704 H 45.497 42.631 38.181 H 0.0 **** 0.0
8705 H 44.983 43.676 36.835 H 0.0 **** 0.0
8706 C 73.186 22.647 89.267 C 0.0 **** 0.0
8707 H 73.598 22.647 88.258 H 0.0 **** 0.0
8708 H 73.915 22.219 89.956 H 0.0 **** 0.0
8709 H 72.273 22.052 89.287 H 0.0 **** 0.0
8710 H 72.96 23.671 89.566 H 0.0 **** 0.0
8711 C 48.87 8.148 60.605 C 0.0 **** 0.0
8712 H 49.007 8.644 61.566 H 0.0 **** 0.0
8713 H 49.41 7.201 60.606 H 0.0 **** 0.0
8714 H 49.254 8.785 59.809 H 0.0 **** 0.0
8715 H 47.809 7.961 60.441 H 0.0 **** 0.0
8716 C 49.366 31.415 26.321 C 0.0 **** 0.0
8717 H 50.109 31.03 25.623 H 0.0 **** 0.0
8718 H 48.464 31.692 25.774 H 0.0 **** 0.0
8719 H 49.765 32.292 26.83 H 0.0 **** 0.0
8720 H 49.125 30.647 27.056 H 0.0 **** 0.0
8721 C 78.171 33.1 34.98 C 0.0 **** 0.0
8722 H 77.842 33.249 33.951 H 0.0 **** 0.0
8723 H 77.711 33.853 35.62 H 0.0 **** 0.0
8724 H 79.255 33.192 35.032 H 0.0 **** 0.0
8725 H 77.874 32.107 35.316 H 0.0 **** 0.0
8726 C 69.61 42.004 12.738 C 0.0 **** 0.0
8727 H 70.025 42.097 11.735 H 0.0 **** 0.0
8728 H 68.522 42.037 12.686 H 0.0 **** 0.0
8729 H 69.97 42.826 13.358 H 0.0 **** 0.0
8730 H 69.925 41.056 13.174 H 0.0 **** 0.0
8731 C 98.066 16.464 28.624 C 0.0 **** 0.0
8732 H 97.523 16.819 27.749 H 0.0 **** 0.0
8733 H 98.77 17.231 28.951 H 0.0 **** 0.0
8734 H 98.611 15.555 28.369 H 0.0 **** 0.0
8735 H 97.361 16.252 29.428 H 0.0 **** 0.0
8736 C 65.209 67.265 53.541 C 0.0 **** 0.0
8737 H 65.66 67.49 54.507 H 0.0 **** 0.0
8738 H 64.992 68.195 53.015 H 0.0 **** 0.0
8739 H 64.283 66.709 53.693 H 0.0 **** 0.0
8740 H 65.899 66.664 52.948 H 0.0 **** 0.0
8741 C 71.187 34.313 79.342 C 0.0 **** 0.0
8742 H 71.632 34.266 80.336 H 0.0 **** 0.0
8743 H 71.973 34.45 78.599 H 0.0 **** 0.0
8744 H 70.492 35.151 79.295 H 0.0 **** 0.0
8745 H 70.652 33.386 79.139 H 0.0 **** 0.0
8746 C 62.17 9.551 27.354 C 0.0 **** 0.0
8747 H 62.404 9.54 28.418 H 0.0 **** 0.0
8748 H 62.625 8.684 26.873 H 0.0 **** 0.0
8749 H 62.564 10.463 26.905 H 0.0 **** 0.0
8750 H 61.089 9.516 27.218 H 0.0 **** 0.0
8751 C 23.053 25.154 14.35 C 0.0 **** 0.0
8752 H 23.161 25.644 13.382 H 0.0 **** 0.0
8753 H 23.49 25.783 15.126 H 0.0 **** 0.0
8754 H 23.566 24.193 14.329 H 0.0 **** 0.0
8755 H 21.996 24.997 14.562 H 0.0 **** 0.0
8756 C 59.222 56.211 77.184 C 0.0 **** 0.0
8757 H 58.592 56.957 76.699 H 0.0 **** 0.0
8758 H 58.599 55.402 77.566 H 0.0 **** 0.0
8759 H 59.763 56.674 78.01 H 0.0 **** 0.0
8760 H 59.934 55.812 76.462 H 0.0 **** 0.0
8761 C 65.426 72.006 39.731 C 0.0 **** 0.0
8762 H 66.248 72.257 40.401 H 0.0 **** 0.0
8763 H 65.34 70.922 39.652 H 0.0 **** 0.0
8764 H 65.619 72.428 38.745 H 0.0 **** 0.0
8765 H 64.497 72.416 40.127 H 0.0 **** 0.0
8766 C 72.518 81.346 74.639 C 0.0 **** 0.0
8767 H 72.941 82.243 75.09 H 0.0 **** 0.0
8768 H 71.608 81.607 74.098 H 0.0 **** 0.0
8769 H 72.281 80.623 75.421 H 0.0 **** 0.0
8770 H 73.24 80.911 73.949 H 0.0 **** 0.0
8771 C 61.47 98.142 60.654 C 0.0 **** 0.0
8772 H 62.073 99.0 60.355 H 0.0 **** 0.0
8773 H 62.045 97.516 61.337 H 0.0 **** 0.0
8774 H 61.2 97.564 59.771 H 0.0 **** 0.0
8775 H 60.566 98.49 61.152 H 0.0 **** 0.0
8776 C 15.941 57.964 7.146 C 0.0 **** 0.0
8777 H 16.153 57.521 8.12 H 0.0 **** 0.0
8778 H 15.143 58.7 7.249 H 0.0 **** 0.0
8779 H 15.628 57.183 6.453 H 0.0 **** 0.0
8780 H 16.839 58.45 6.765 H 0.0 **** 0.0
8781 C 68.271 91.123 88.978 C 0.0 **** 0.0
8782 H 69.265 90.743 89.213 H 0.0 **** 0.0
8783 H 67.555 90.743 89.707 H 0.0 **** 0.0
8784 H 67.983 90.793 87.98 H 0.0 **** 0.0
8785 H 68.281 92.212 89.011 H 0.0 **** 0.0
8786 C 83.226 44.002 9.813 C 0.0 **** 0.0
8787 H 83.133 43.955 8.728 H 0.0 **** 0.0
8788 H 82.341 44.479 10.233 H 0.0 **** 0.0
8789 H 84.111 44.581 10.076 H 0.0 **** 0.0
8790 H 83.32 42.993 10.213 H 0.0 **** 0.0
8791 C 59.355 85.294 16.004 C 0.0 **** 0.0
8792 H 59.896 86.175 15.658 H 0.0 **** 0.0
8793 H 59.875 84.861 16.859 H 0.0 **** 0.0
8794 H 59.304 84.56 15.2 H 0.0 **** 0.0
8795 H 58.346 85.581 16.299 H 0.0 **** 0.0
8796 C 22.395 21.695 91.191 C 0.0 **** 0.0
8797 H 22.247 21.979 90.149 H 0.0 **** 0.0
8798 H 21.569 21.061 91.515 H 0.0 **** 0.0
8799 H 22.43 22.591 91.81 H 0.0 **** 0.0
8800 H 23.333 21.148 91.288 H 0.0 **** 0.0
8801 C 69.787 19.71 36.608 C 0.0 **** 0.0
8802 H 70.331 20.106 37.465 H 0.0 **** 0.0
8803 H 70.182 20.151 35.692 H 0.0 **** 0.0
8804 H 68.73 19.955 36.704 H 0.0 **** 0.0
8805 H 69.907 18.627 36.571 H 0.0 **** 0.0
8806 C 36.543 75.548 19.895 C 0.0 **** 0.0
8807 H 36.643 74.979 20.819 H 0.0 **** 0.0
8808 H 35.486 75.683 19.665 H 0.0 **** 0.0
8809 H 37.026 75.006 19.081 H 0.0 **** 0.0
8810 H 37.017 76.522 20.014 H 0.0 **** 0.0
8811 C 71.071 67.824 94.816 C 0.0 **** 0.0
8812 H 70.467 68.559 94.282 H 0.0 **** 0.0
8813 H 70.492 67.408 95.64 H 0.0 **** 0.0
8814 H 71.967 68.306 95.207 H 0.0 **** 0.0
8815 H 71.357 67.024 94.132 H 0.0 **** 0.0
8816 C 33.373 68.271 40.491 C 0.0 **** 0.0
8817 H 32.333 68.177 40.802 H 0.0 **** 0.0
8818 H 33.794 69.189 40.904 H 0.0 **** 0.0
8819 H 33.426 68.304 39.403 H 0.0 **** 0.0
8820 H 33.94 67.415 40.857 H 0.0 **** 0.0
8821 C 61.085 70.329 94.024 C 0.0 **** 0.0
8822 H 61.713 70.79 93.262 H 0.0 **** 0.0
8823 H 60.542 69.49 93.589 H 0.0 **** 0.0
8824 H 60.374 71.065 94.402 H 0.0 **** 0.0
8825 H 61.71 69.974 94.843 H 0.0 **** 0.0
8826 C 24.317 98.124 70.739 C 0.0 **** 0.0
8827 H 24.555 98.374 71.773 H 0.0 **** 0.0
8828 H 23.659 98.887 70.324 H 0.0 **** 0.0
8829 H 23.818 97.156 70.706 H 0.0 **** 0.0
8830 H 25.236 98.08 70.156 H 0.0 **** 0.0
8831 C 95.27 4.863 19.702 C 0.0 **** 0.0
8832 H 95.739 3.92 19.981 H 0.0 **** 0.0
8833 H 95.718 5.675 20.275 H 0.0 **** 0.0
8834 H 94.202 4.814 19.916 H 0.0 **** 0.0
8835 H 95.42 5.043 18.638 H 0.0 **** 0.0
8836 C 12.953 86.07 27.189 C 0.0 **** 0.0
8837 H 12.356 85.188 26.958 H 0.0 **** 0.0
8838 H 13.971 85.923 26.829 H 0.0 **** 0.0
8839 H 12.967 86.226 28.268 H 0.0 **** 0.0
8840 H 12.517 86.942 26.702 H 0.0 **** 0.0
8841 C 76.589 78.598 83.05 C 0.0 **** 0.0
8842 H 77.375 78.203 82.406 H 0.0 **** 0.0
8843 H 75.956 79.276 82.477 H 0.0 **** 0.0
8844 H 77.041 79.139 83.882 H 0.0 **** 0.0
8845 H 75.987 77.776 83.435 H 0.0 **** 0.0
8846 C 59.061 22.395 71.98 C 0.0 **** 0.0
8847 H 59.234 22.459 70.906 H 0.0 **** 0.0
8848 H 58.388 21.564 72.191 H 0.0 **** 0.0
8849 H 58.612 23.325 72.331 H 0.0 **** 0.0
8850 H 60.01 22.234 72.491 H 0.0 **** 0.0
8851 C 54.433 37.451 35.168 C 0.0 **** 0.0
8852 H 53.631 36.913 35.674 H 0.0 **** 0.0
8853 H 55.169 36.738 34.794 H 0.0 **** 0.0
8854 H 54.912 38.134 35.869 H 0.0 **** 0.0
8855 H 54.02 38.017 34.333 H 0.0 **** 0.0
8856 C 88.472 83.073 80.9 C 0.0 **** 0.0
8857 H 88.563 83.566 79.932 H 0.0 **** 0.0
8858 H 89.149 82.219 80.937 H 0.0 **** 0.0
8859 H 87.447 82.731 81.038 H 0.0 **** 0.0
8860 H 88.73 83.777 81.691 H 0.0 **** 0.0
8861 C 48.452 17.236 66.221 C 0.0 **** 0.0
8862 H 47.887 17.702 65.414 H 0.0 **** 0.0
8863 H 49.1 17.978 66.688 H 0.0 **** 0.0
8864 H 49.06 16.426 65.817 H 0.0 **** 0.0
8865 H 47.762 16.837 66.964 H 0.0 **** 0.0
8866 C 40.24 86.782 24.959 C 0.0 **** 0.0
8867 H 41.065 86.905 25.661 H 0.0 **** 0.0
8868 H 40.354 87.49 24.138 H 0.0 **** 0.0
8869 H 39.297 86.968 25.472 H 0.0 **** 0.0
8870 H 40.246 85.765 24.567 H 0.0 **** 0.0
8871 C 15.439 10.134 67.749 C 0.0 **** 0.0
8872 H 16.059 9.301 67.416 H 0.0 **** 0.0
8873 H 14.387 9.863 67.656 H 0.0 **** 0.0
8874 H 15.646 11.009 67.133 H 0.0 **** 0.0
8875 H 15.666 10.361 68.791 H 0.0 **** 0.0
8876 C 13.316 30.102 57.492 C 0.0 **** 0.0
8877 H 12.663 30.214 56.627 H 0.0 **** 0.0
8878 H 13.75 31.07 57.746 H 0.0 **** 0.0
8879 H 14.113 29.397 57.256 H 0.0 **** 0.0
8880 H 12.739 29.729 58.338 H 0.0 **** 0.0
8881 C 62.207 74.279 88.541 C 0.0 **** 0.0
8882 H 62.125 73.652 87.653 H 0.0 **** 0.0
8883 H 62.898 75.099 88.345 H 0.0 **** 0.0
8884 H 62.578 73.682 89.374 H 0.0 **** 0.0
8885 H 61.226 74.682 88.793 H 0.0 **** 0.0
8886 C 88.142 78.337 60.088 C 0.0 **** 0.0
8887 H 87.975 77.92 59.095 H 0.0 **** 0.0
8888 H 87.434 79.146 60.266 H 0.0 **** 0.0
8889 H 89.16 78.722 60.154 H 0.0 **** 0.0
8890 H 87.999 77.558 60.837 H 0.0 **** 0.0
8891 C 97.279 15.507 16.162 C 0.0 **** 0.0
8892 H 97.084 15.137 15.156 H 0.0 **** 0.0
8893 H 96.692 16.409 16.338 H 0.0 **** 0.0
8894 H 98.34 15.738 16.264 H 0.0 **** 0.0
8895 H 97.002 14.745 16.89 H 0.0 **** 0.0
8896 C 37.861 36.561 86.696 C 0.0 **** 0.0
8897 H 37.415 36.348 85.724 H 0.0 **** 0.0
8898 H 38.846 36.098 86.753 H 0.0 **** 0.0
8899 H 37.224 36.159 87.484 H 0.0 **** 0.0
8900 H 37.958 37.639 86.822 H 0.0 **** 0.0
8901 C 27.578 20.058 62.233 C 0.0 **** 0.0
8902 H 28.327 19.881 63.005 H 0.0 **** 0.0
8903 H 27.291 21.11 62.239 H 0.0 **** 0.0
8904 H 26.701 19.441 62.429 H 0.0 **** 0.0
8905 H 27.993 19.8 61.259 H 0.0 **** 0.0
8906 C 81.894 37.263 1.0 C 0.0 **** 0.0
8907 H 82.655 37.662 0.329 H 0.0 **** 0.0
8908 H 80.957 37.798 0.844 H 0.0 **** 0.0
8909 H 82.218 37.39 2.033 H 0.0 **** 0.0
8910 H 81.747 36.203 0.793 H 0.0 **** 0.0
8911 C 73.837 31.038 28.872 C 0.0 **** 0.0
8912 H 74.45 30.531 28.126 H 0.0 **** 0.0
8913 H 73.848 30.466 29.8 H 0.0 **** 0.0
8914 H 72.814 31.119 28.506 H 0.0 **** 0.0
8915 H 74.238 32.035 29.054 H 0.0 **** 0.0
8916 C 91.508 32.019 87.282 C 0.0 **** 0.0
8917 H 91.167 32.651 86.462 H 0.0 **** 0.0
8918 H 90.691 31.865 87.986 H 0.0 **** 0.0
8919 H 92.341 32.504 87.791 H 0.0 **** 0.0
8920 H 91.835 31.057 86.887 H 0.0 **** 0.0
8921 C 5.933 0.709 57.005 C 0.0 **** 0.0
8922 H 5.756 1.766 57.204 H 0.0 **** 0.0
8923 H 6.252 0.215 57.923 H 0.0 **** 0.0
8924 H 6.711 0.608 56.248 H 0.0 **** 0.0
8925 H 5.013 0.249 56.645 H 0.0 **** 0.0
8926 C 88.375 90.583 87.06 C 0.0 **** 0.0
8927 H 88.329 91.641 86.802 H 0.0 **** 0.0
8928 H 87.791 90.008 86.342 H 0.0 **** 0.0
8929 H 87.968 90.435 88.061 H 0.0 **** 0.0
8930 H 89.412 90.249 87.037 H 0.0 **** 0.0
8931 C 97.369 72.261 31.784 C 0.0 **** 0.0
8932 H 97.397 72.423 32.862 H 0.0 **** 0.0
8933 H 97.599 71.218 31.568 H 0.0 **** 0.0
8934 H 98.106 72.903 31.302 H 0.0 **** 0.0
8935 H 96.375 72.501 31.407 H 0.0 **** 0.0
8936 C 22.343 71.325 21.723 C 0.0 **** 0.0
8937 H 22.198 70.419 22.31 H 0.0 **** 0.0
8938 H 21.845 71.218 20.759 H 0.0 **** 0.0
8939 H 23.409 71.489 21.565 H 0.0 **** 0.0
8940 H 21.921 72.176 22.258 H 0.0 **** 0.0
8941 C 24.669 97.596 16.979 C 0.0 **** 0.0
8942 H 25.741 97.692 17.151 H 0.0 **** 0.0
8943 H 24.444 97.841 15.941 H 0.0 **** 0.0
8944 H 24.133 98.279 17.638 H 0.0 **** 0.0
8945 H 24.358 96.572 17.187 H 0.0 **** 0.0
8946 C 0.938 32.93 32.79 C 0.0 **** 0.0
8947 H 0.869 32.978 33.877 H 0.0 **** 0.0
8948 H 0.032 33.347 32.349 H 0.0 **** 0.0
8949 H 1.05 31.891 32.479 H 0.0 **** 0.0
8950 H 1.802 33.504 32.456 H 0.0 **** 0.0
8951 C 69.981 46.135 52.505 C 0.0 **** 0.0
8952 H 69.674 46.705 51.628 H 0.0 **** 0.0
8953 H 70.09 45.085 52.235 H 0.0 **** 0.0
8954 H 69.227 46.234 53.285 H 0.0 **** 0.0
8955 H 70.934 46.517 52.87 H 0.0 **** 0.0
8956 C 55.003 37.388 79.622 C 0.0 **** 0.0
8957 H 54.777 36.418 79.18 H 0.0 **** 0.0
8958 H 54.45 37.5 80.555 H 0.0 **** 0.0
8959 H 54.712 38.179 78.93 H 0.0 **** 0.0
8960 H 56.072 37.456 79.822 H 0.0 **** 0.0
8961 C 56.071 85.977 30.46 C 0.0 **** 0.0
8962 H 56.987 85.624 30.934 H 0.0 **** 0.0
8963 H 55.359 85.155 30.389 H 0.0 **** 0.0
8964 H 56.299 86.348 29.46 H 0.0 **** 0.0
8965 H 55.64 86.781 31.056 H 0.0 **** 0.0
8966 C 88.772 75.658 6.845 C 0.0 **** 0.0
8967 H 89.553 76.258 6.377 H 0.0 **** 0.0
8968 H 88.617 76.0 7.869 H 0.0 **** 0.0
8969 H 89.074 74.611 6.853 H 0.0 **** 0.0
8970 H 87.845 75.765 6.282 H 0.0 **** 0.0
8971 C 5.358 62.853 89.824 C 0.0 **** 0.0
8972 H 4.961 63.299 88.912 H 0.0 **** 0.0
8973 H 5.817 61.892 89.588 H 0.0 **** 0.0
8974 H 4.548 62.704 90.538 H 0.0 **** 0.0
8975 H 6.106 63.517 90.258 H 0.0 **** 0.0
8976 C 43.569 74.294 13.953 C 0.0 **** 0.0
8977 H 43.047 75.221 14.186 H 0.0 **** 0.0
8978 H 42.848 73.479 13.88 H 0.0 **** 0.0
8979 H 44.288 74.074 14.742 H 0.0 **** 0.0
8980 H 44.094 74.401 13.003 H 0.0 **** 0.0
8981 C 92.954 14.689 87.773 C 0.0 **** 0.0
8982 H 92.013 14.666 88.322 H 0.0 **** 0.0
8983 H 92.911 15.467 87.01 H 0.0 **** 0.0
8984 H 93.121 13.723 87.298 H 0.0 **** 0.0
8985 H 93.771 14.902 88.463 H 0.0 **** 0.0
8986 C 66.674 90.964 2.637 C 0.0 **** 0.0
8987 H 65.89 91.509 2.111 H 0.0 **** 0.0
8988 H 66.221 90.21 3.282 H 0.0 **** 0.0
8989 H 67.256 91.659 3.242 H 0.0 **** 0.0
8990 H 67.327 90.478 1.912 H 0.0 **** 0.0
8991 C 95.759 45.576 27.018 C 0.0 **** 0.0
8992 H 95.143 46.047 27.784 H 0.0 **** 0.0
8993 H 96.297 46.343 26.461 H 0.0 **** 0.0
8994 H 95.122 45.011 26.337 H 0.0 **** 0.0
8995 H 96.473 44.902 27.491 H 0.0 **** 0.0
8996 C 64.474 39.817 91.406 C 0.0 **** 0.0
8997 H 64.99 40.712 91.058 H 0.0 **** 0.0
8998 H 63.893 40.056 92.297 H 0.0 **** 0.0
8999 H 65.206 39.046 91.645 H 0.0 **** 0.0
9000 H 63.807 39.455 90.623 H 0.0 **** 0.0
9001 C 29.051 69.64 16.953 C 0.0 **** 0.0
9002 H 29.422 69.855 17.955 H 0.0 **** 0.0
9003 H 28.062 69.186 17.022 H 0.0 **** 0.0
9004 H 29.733 68.953 16.452 H 0.0 **** 0.0
9005 H 28.986 70.567 16.383 H 0.0 **** 0.0
9006 C 10.637 91.992 68.818 C 0.0 **** 0.0
9007 H 11.559 91.411 68.804 H 0.0 **** 0.0
9008 H 10.126 91.84 69.77 H 0.0 **** 0.0
9009 H 9.99 91.667 68.003 H 0.0 **** 0.0
9010 H 10.872 93.049 68.696 H 0.0 **** 0.0
9011 C 75.676 92.398 23.794 C 0.0 **** 0.0
9012 H 76.467 92.888 24.361 H 0.0 **** 0.0
9013 H 74.709 92.644 24.233 H 0.0 **** 0.0
9014 H 75.824 91.319 23.821 H 0.0 **** 0.0
9015 H 75.703 92.743 22.76 H 0.0 **** 0.0
9016 C 6.281 92.065 95.906 C 0.0 **** 0.0
9017 H 6.345 92.502 96.902 H 0.0 **** 0.0
9018 H 7.276 91.769 95.575 H 0.0 **** 0.0
9019 H 5.87 92.799 95.213 H 0.0 **** 0.0
9020 H 5.632 91.189 95.935 H 0.0 **** 0.0
9021 C 11.58 20.847 70.158 C 0.0 **** 0.0
9022 H 11.888 20.452 69.19 H 0.0 **** 0.0
9023 H 12.226 20.443 70.938 H 0.0 **** 0.0
9024 H 10.548 20.559 70.356 H 0.0 **** 0.0
9025 H 11.658 21.934 70.148 H 0.0 **** 0.0
9026 C 11.595 75.703 42.265 C 0.0 **** 0.0
9027 H 11.987 76.707 42.101 H 0.0 **** 0.0
9028 H 10.513 75.709 42.129 H 0.0 **** 0.0
9029 H 11.832 75.381 43.279 H 0.0 **** 0.0
9030 H 12.048 75.015 41.55 H 0.0 **** 0.0
9031 C 3.95 50.665 47.53 C 0.0 **** 0.0
9032 H 4.167 50.045 46.66 H 0.0 **** 0.0
9033 H 4.109 51.714 47.277 H 0.0 **** 0.0
9034 H 4.611 50.384 48.35 H 0.0 **** 0.0
9035 H 2.913 50.517 47.832 H 0.0 **** 0.0
9036 C 84.728 52.068 79.014 C 0.0 **** 0.0
9037 H 84.739 52.061 77.924 H 0.0 **** 0.0
9038 H 85.349 51.254 79.388 H 0.0 **** 0.0
9039 H 83.705 51.937 79.367 H 0.0 **** 0.0
9040 H 85.118 53.019 79.374 H 0.0 **** 0.0
9041 C 95.985 82.347 96.419 C 0.0 **** 0.0
9042 H 95.698 81.961 97.397 H 0.0 **** 0.0
9043 H 96.47 83.316 96.539 H 0.0 **** 0.0
9044 H 95.097 82.46 95.798 H 0.0 **** 0.0
9045 H 96.676 81.651 95.943 H 0.0 **** 0.0
9046 C 81.751 61.214 47.112 C 0.0 **** 0.0
9047 H 80.944 60.764 47.69 H 0.0 **** 0.0
9048 H 82.532 61.56 47.789 H 0.0 **** 0.0
9049 H 81.362 62.058 46.543 H 0.0 **** 0.0
9050 H 82.164 60.473 46.428 H 0.0 **** 0.0
9051 C 92.524 1.088 65.4 C 0.0 **** 0.0
9052 H 93.237 1.614 64.766 H 0.0 **** 0.0
9053 H 91.515 1.244 65.017 H 0.0 **** 0.0
9054 H 92.59 1.471 66.418 H 0.0 **** 0.0
9055 H 92.753 0.022 65.397 H 0.0 **** 0.0
9056 C 95.768 43.016 5.716 C 0.0 **** 0.0
9057 H 94.874 42.881 6.325 H 0.0 **** 0.0
9058 H 96.541 42.322 6.047 H 0.0 **** 0.0
9059 H 96.128 44.039 5.821 H 0.0 **** 0.0
9060 H 95.529 42.821 4.671 H 0.0 **** 0.0
9061 C 51.715 10.962 96.214 C 0.0 **** 0.0
9062 H 52.641 11.301 96.679 H 0.0 **** 0.0
9063 H 51.097 10.459 96.958 H 0.0 **** 0.0
9064 H 51.947 10.27 95.404 H 0.0 **** 0.0
9065 H 51.175 11.821 95.814 H 0.0 **** 0.0
9066 C 2.219 31.448 55.968 C 0.0 **** 0.0
9067 H 1.226 31.048 55.763 H 0.0 **** 0.0
9068 H 2.341 32.398 55.448 H 0.0 **** 0.0
9069 H 2.974 30.743 55.62 H 0.0 **** 0.0
9070 H 2.333 31.603 57.041 H 0.0 **** 0.0
9071 C 80.716 55.564 50.902 C 0.0 **** 0.0
9072 H 80.338 56.213 51.692 H 0.0 **** 0.0
9073 H 81.383 56.133 50.253 H 0.0 **** 0.0
9074 H 79.881 55.179 50.317 H 0.0 **** 0.0
9075 H 81.263 54.732 51.346 H 0.0 **** 0.0
9076 C 12.765 91.749 31.897 C 0.0 **** 0.0
9077 H 13.509 92.491 31.606 H 0.0 **** 0.0
9078 H 13.204 90.753 31.839 H 0.0 **** 0.0
9079 H 11.91 91.809 31.224 H 0.0 **** 0.0
9080 H 12.438 91.944 32.918 H 0.0 **** 0.0
9081 C 42.819 65.182 20.29 C 0.0 **** 0.0
9082 H 42.135 65.589 21.035 H 0.0 **** 0.0
9083 H 43.306 64.293 20.692 H 0.0 **** 0.0
9084 H 43.572 65.929 20.042 H 0.0 **** 0.0
9085 H 42.261 64.916 19.392 H 0.0 **** 0.0
9086 C 60.428 66.434 49.37 C 0.0 **** 0.0
9087 H 59.684 67.199 49.151 H 0.0 **** 0.0
9088 H 60.421 66.216 50.438 H 0.0 **** 0.0
9089 H 61.415 66.794 49.079 H 0.0 **** 0.0
9090 H 60.193 65.528 48.812 H 0.0 **** 0.0
9091 C 73.382 58.655 31.305 C 0.0 **** 0.0
9092 H 73.448 58.78 30.224 H 0.0 **** 0.0
9093 H 73.11 57.624 31.535 H 0.0 **** 0.0
9094 H 72.624 59.329 31.703 H 0.0 **** 0.0
9095 H 74.347 58.886 31.756 H 0.0 **** 0.0
9096 C 51.054 23.532 45.584 C 0.0 **** 0.0
9097 H 50.737 24.574 45.555 H 0.0 **** 0.0
9098 H 50.843 23.062 44.623 H 0.0 **** 0.0
9099 H 50.512 23.009 46.372 H 0.0 **** 0.0
9100 H 52.124 23.484 45.786 H 0.0 **** 0.0
9101 C 89.257 24.912 62.059 C 0.0 **** 0.0
9102 H 89.211 25.705 61.312 H 0.0 **** 0.0
9103 H 88.595 24.098 61.765 H 0.0 **** 0.0
9104 H 88.942 25.306 63.026 H 0.0 **** 0.0
9105 H 90.279 24.542 62.133 H 0.0 **** 0.0
9106 C 16.588 54.2 7.812 C 0.0 **** 0.0
9107 H 17.411 54.753 8.264 H 0.0 **** 0.0
9108 H 16.102 53.588 8.572 H 0.0 **** 0.0
9109 H 16.975 53.558 7.02 H 0.0 **** 0.0
9110 H 15.867 54.901 7.392 H 0.0 **** 0.0
9111 C 9.48 52.858 16.872 C 0.0 **** 0.0
9112 H 8.869 53.755 16.971 H 0.0 **** 0.0
9113 H 9.052 52.21 16.107 H 0.0 **** 0.0
9114 H 9.506 52.329 17.824 H 0.0 **** 0.0
9115 H 10.494 53.139 16.585 H 0.0 **** 0.0
9116 C 29.581 75.652 93.955 C 0.0 **** 0.0
9117 H 29.261 74.902 93.231 H 0.0 **** 0.0
9118 H 29.62 75.204 94.948 H 0.0 **** 0.0
9119 H 28.872 76.48 93.957 H 0.0 **** 0.0
9120 H 30.57 76.021 93.683 H 0.0 **** 0.0
9121 C 28.833 52.26 50.822 C 0.0 **** 0.0
9122 H 28.872 52.338 51.908 H 0.0 **** 0.0
9123 H 29.044 51.233 50.523 H 0.0 **** 0.0
9124 H 29.577 52.926 50.384 H 0.0 **** 0.0
9125 H 27.841 52.544 50.472 H 0.0 **** 0.0
9126 C 50.778 32.528 93.366 C 0.0 **** 0.0
9127 H 51.005 32.194 92.354 H 0.0 **** 0.0
9128 H 50.107 31.812 93.842 H 0.0 **** 0.0
9129 H 50.298 33.506 93.327 H 0.0 **** 0.0
9130 H 51.701 32.599 93.941 H 0.0 **** 0.0
9131 C 92.361 84.183 42.476 C 0.0 **** 0.0
9132 H 93.335 83.864 42.847 H 0.0 **** 0.0
9133 H 91.852 83.335 42.017 H 0.0 **** 0.0
9134 H 92.496 84.97 41.734 H 0.0 **** 0.0
9135 H 91.763 84.562 43.304 H 0.0 **** 0.0
9136 C 87.658 33.134 30.016 C 0.0 **** 0.0
9137 H 87.486 32.958 31.078 H 0.0 **** 0.0
9138 H 86.727 33.451 29.545 H 0.0 **** 0.0
9139 H 88.008 32.214 29.548 H 0.0 **** 0.0
9140 H 88.411 33.913 29.895 H 0.0 **** 0.0
9141 C 9.725 90.639 81.9 C 0.0 **** 0.0
9142 H 10.409 91.327 82.397 H 0.0 **** 0.0
9143 H 8.97 90.301 82.609 H 0.0 **** 0.0
9144 H 10.283 89.78 81.525 H 0.0 **** 0.0
9145 H 9.24 91.148 81.067 H 0.0 **** 0.0
9146 C 89.877 93.306 82.998 C 0.0 **** 0.0
9147 H 89.179 93.523 82.19 H 0.0 **** 0.0
9148 H 89.322 93.1 83.913 H 0.0 **** 0.0
9149 H 90.53 94.164 83.154 H 0.0 **** 0.0
9150 H 90.478 92.436 82.734 H 0.0 **** 0.0
9151 C 22.475 41.673 58.513 C 0.0 **** 0.0
9152 H 22.21 42.713 58.706 H 0.0 **** 0.0
9153 H 23.541 41.531 58.69 H 0.0 **** 0.0
9154 H 22.242 41.425 57.478 H 0.0 **** 0.0
9155 H 21.906 41.024 59.18 H 0.0 **** 0.0
9156 C 32.492 59.02 4.091 C 0.0 **** 0.0
9157 H 32.699 58.127 3.501 H 0.0 **** 0.0
9158 H 31.432 59.052 4.343 H 0.0 **** 0.0
9159 H 32.756 59.906 3.514 H 0.0 **** 0.0
9160 H 33.083 58.994 5.007 H 0.0 **** 0.0
9161 C 93.853 86.377 8.029 C 0.0 **** 0.0
9162 H 94.164 86.654 9.036 H 0.0 **** 0.0
9163 H 94.653 85.818 7.543 H 0.0 **** 0.0
9164 H 93.637 87.278 7.455 H 0.0 **** 0.0
9165 H 92.958 85.758 8.083 H 0.0 **** 0.0
9166 C 97.867 26.296 79.837 C 0.0 **** 0.0
9167 H 97.861 25.307 80.295 H 0.0 **** 0.0
9168 H 97.767 26.196 78.756 H 0.0 **** 0.0
9169 H 98.805 26.799 80.071 H 0.0 **** 0.0
9170 H 97.034 26.881 80.227 H 0.0 **** 0.0
9171 C 27.477 52.436 23.098 C 0.0 **** 0.0
9172 H 28.522 52.125 23.117 H 0.0 **** 0.0
9173 H 27.011 52.082 22.178 H 0.0 **** 0.0
9174 H 27.421 53.523 23.14 H 0.0 **** 0.0
9175 H 26.957 52.011 23.956 H 0.0 **** 0.0
9176 C 35.696 74.482 53.23 C 0.0 **** 0.0
9177 H 34.939 73.984 52.624 H 0.0 **** 0.0
9178 H 35.309 75.441 53.577 H 0.0 **** 0.0
9179 H 36.59 74.647 52.629 H 0.0 **** 0.0
9180 H 35.944 73.858 54.088 H 0.0 **** 0.0
9181 C 69.464 67.049 78.4 C 0.0 **** 0.0
9182 H 70.021 67.595 77.638 H 0.0 **** 0.0
9183 H 69.527 67.583 79.348 H 0.0 **** 0.0
9184 H 69.888 66.051 78.515 H 0.0 **** 0.0
9185 H 68.42 66.967 78.098 H 0.0 **** 0.0
9186 C 72.042 98.088 13.295 C 0.0 **** 0.0
9187 H 72.744 98.558 13.984 H 0.0 **** 0.0
9188 H 71.085 97.942 13.795 H 0.0 **** 0.0
9189 H 72.437 97.123 12.976 H 0.0 **** 0.0
9190 H 71.904 98.729 12.424 H 0.0 **** 0.0
9191 C 91.075 80.533 68.745 C 0.0 **** 0.0
9192 H 90.789 80.128 69.715 H 0.0 **** 0.0
9193 H 91.782 79.856 68.263 H 0.0 **** 0.0
9194 H 91.542 81.508 68.882 H 0.0 **** 0.0
9195 H 90.189 80.639 68.12 H 0.0 **** 0.0
9196 C 49.932 43.828 23.357 C 0.0 **** 0.0
9197 H 50.676 43.056 23.163 H 0.0 **** 0.0
9198 H 49.588 43.749 24.389 H 0.0 **** 0.0
9199 H 49.087 43.697 22.681 H 0.0 **** 0.0
9200 H 50.377 44.81 23.197 H 0.0 **** 0.0
9201 C 76.212 45.23 76.837 C 0.0 **** 0.0
9202 H 77.043 45.029 77.513 H 0.0 **** 0.0
9203 H 75.884 44.298 76.377 H 0.0 **** 0.0
9204 H 76.536 45.924 76.061 H 0.0 **** 0.0
9205 H 75.387 45.67 77.397 H 0.0 **** 0.0
9206 C 5.121 18.336 37.011 C 0.0 **** 0.0
9207 H 5.023 19.277 37.552 H 0.0 **** 0.0
9208 H 5.566 17.585 37.665 H 0.0 **** 0.0
9209 H 5.759 18.483 36.139 H 0.0 **** 0.0
9210 H 4.137 17.998 36.687 H 0.0 **** 0.0
9211 C 55.686 55.356 60.102 C 0.0 **** 0.0
9212 H 56.011 55.53 61.128 H 0.0 **** 0.0
9213 H 55.885 54.32 59.829 H 0.0 **** 0.0
9214 H 56.231 56.02 59.431 H 0.0 **** 0.0
9215 H 54.617 55.555 60.021 H 0.0 **** 0.0
9216 C 62.624 54.629 26.196 C 0.0 **** 0.0
9217 H 62.724 53.756 26.841 H 0.0 **** 0.0
9218 H 62.251 54.318 25.22 H 0.0 **** 0.0
9219 H 63.597 55.107 26.079 H 0.0 **** 0.0
9220 H 61.925 55.334 26.645 H 0.0 **** 0.0
9221 C 49.99 29.001 38.302 C 0.0 **** 0.0
9222 H 50.033 27.923 38.148 H 0.0 **** 0.0
9223 H 50.9 29.333 38.802 H 0.0 **** 0.0
9224 H 49.126 29.246 38.918 H 0.0 **** 0.0
9225 H 49.903 29.502 37.337 H 0.0 **** 0.0
9226 C 45.766 96.773 20.467 C 0.0 **** 0.0
9227 H 44.724 96.534 20.255 H 0.0 **** 0.0
9228 H 46.072 96.278 21.389 H 0.0 **** 0.0
9229 H 45.877 97.851 20.578 H 0.0 **** 0.0
9230 H 46.392 96.426 19.644 H 0.0 **** 0.0
9231 C 42.522 56.762 70.094 C 0.0 **** 0.0
9232 H 42.554 56.724 69.005 H 0.0 **** 0.0
9233 H 42.987 57.686 70.439 H 0.0 **** 0.0
9234 H 43.062 55.908 70.503 H 0.0 **** 0.0
9235 H 41.485 56.731 70.428 H 0.0 **** 0.0
9236 C 57.133 36.473 69.939 C 0.0 **** 0.0
9237 H 56.649 36.796 70.861 H 0.0 **** 0.0
9238 H 56.658 36.963 69.089 H 0.0 **** 0.0
9239 H 57.036 35.392 69.837 H 0.0 **** 0.0
9240 H 58.189 36.741 69.97 H 0.0 **** 0.0
9241 C 87.101 92.095 89.902 C 0.0 **** 0.0
9242 H 87.92 91.39 90.043 H 0.0 **** 0.0
9243 H 87.267 92.667 88.989 H 0.0 **** 0.0
9244 H 87.057 92.775 90.754 H 0.0 **** 0.0
9245 H 86.161 91.549 89.824 H 0.0 **** 0.0
9246 C 64.065 89.254 98.29 C 0.0 **** 0.0
9247 H 63.401 88.574 97.757 H 0.0 **** 0.0
9248 H 64.82 88.679 98.826 H 0.0 **** 0.0
9249 H 63.486 89.845 99.0 H 0.0 **** 0.0
9250 H 64.553 89.919 97.577 H 0.0 **** 0.0
9251 C 93.99 48.117 31.216 C 0.0 **** 0.0
9252 H 94.995 47.712 31.328 H 0.0 **** 0.0
9253 H 93.672 48.022 30.178 H 0.0 **** 0.0
9254 H 93.989 49.169 31.502 H 0.0 **** 0.0
9255 H 93.303 47.566 31.858 H 0.0 **** 0.0
9256 C 71.568 98.023 68.0 C 0.0 **** 0.0
9257 H 71.577 97.791 69.065 H 0.0 **** 0.0
9258 H 70.648 98.552 67.752 H 0.0 **** 0.0
9259 H 71.621 97.097 67.427 H 0.0 **** 0.0
9260 H 72.425 98.65 67.757 H 0.0 **** 0.0
9261 C 97.62 81.309 33.443 C 0.0 **** 0.0
9262 H 97.544 82.15 32.754 H 0.0 **** 0.0
9263 H 96.769 81.319 34.124 H 0.0 **** 0.0
9264 H 98.545 81.389 34.014 H 0.0 **** 0.0
9265 H 97.622 80.377 32.877 H 0.0 **** 0.0
9266 C 48.149 82.425 70.456 C 0.0 **** 0.0
9267 H 47.572 82.235 69.551 H 0.0 **** 0.0
9268 H 48.357 81.48 70.959 H 0.0 **** 0.0
9269 H 47.577 83.073 71.122 H 0.0 **** 0.0
9270 H 49.087 82.912 70.193 H 0.0 **** 0.0
9271 C 27.13 84.419 38.244 C 0.0 **** 0.0
9272 H 26.861 85.432 37.945 H 0.0 **** 0.0
9273 H 28.07 84.138 37.768 H 0.0 **** 0.0
9274 H 26.345 83.729 37.936 H 0.0 **** 0.0
9275 H 27.244 84.379 39.327 H 0.0 **** 0.0
9276 C 7.389 41.264 45.075 C 0.0 **** 0.0
9277 H 7.517 41.858 44.17 H 0.0 **** 0.0
9278 H 6.987 40.285 44.813 H 0.0 **** 0.0
9279 H 6.7 41.772 45.749 H 0.0 **** 0.0
9280 H 8.354 41.14 45.568 H 0.0 **** 0.0
9281 C 71.785 48.499 13.781 C 0.0 **** 0.0
9282 H 72.497 49.283 14.041 H 0.0 **** 0.0
9283 H 72.042 48.083 12.807 H 0.0 **** 0.0
9284 H 70.78 48.92 13.744 H 0.0 **** 0.0
9285 H 71.821 47.712 14.534 H 0.0 **** 0.0
9286 C 75.853 71.589 97.085 C 0.0 **** 0.0
9287 H 75.984 71.286 96.047 H 0.0 **** 0.0
9288 H 75.332 70.801 97.63 H 0.0 **** 0.0
9289 H 75.267 72.507 97.124 H 0.0 **** 0.0
9290 H 76.829 71.761 97.54 H 0.0 **** 0.0
9291 C 53.719 57.808 35.166 C 0.0 **** 0.0
9292 H 54.334 58.698 35.031 H 0.0 **** 0.0
9293 H 54.281 56.928 34.852 H 0.0 **** 0.0
9294 H 52.815 57.897 34.562 H 0.0 **** 0.0
9295 H 53.446 57.711 36.216 H 0.0 **** 0.0
9296 C 25.097 50.381 60.556 C 0.0 **** 0.0
9297 H 24.183 50.834 60.171 H 0.0 **** 0.0
9298 H 25.638 51.111 61.158 H 0.0 **** 0.0
9299 H 25.722 50.061 59.723 H 0.0 **** 0.0
9300 H 24.843 49.519 61.172 H 0.0 **** 0.0
9301 C 93.093 50.527 25.356 C 0.0 **** 0.0
9302 H 92.51 50.696 24.451 H 0.0 **** 0.0
9303 H 93.374 49.476 25.416 H 0.0 **** 0.0
9304 H 92.495 50.794 26.228 H 0.0 **** 0.0
9305 H 93.992 51.143 25.329 H 0.0 **** 0.0
9306 C 72.191 19.125 89.89 C 0.0 **** 0.0
9307 H 71.26 19.526 90.29 H 0.0 **** 0.0
9308 H 73.034 19.663 90.325 H 0.0 **** 0.0
9309 H 72.203 19.246 88.807 H 0.0 **** 0.0
9310 H 72.268 18.067 90.139 H 0.0 **** 0.0
9311 C 45.576 66.819 66.26 C 0.0 **** 0.0
9312 H 46.516 66.392 66.608 H 0.0 **** 0.0
9313 H 44.926 67.01 67.115 H 0.0 **** 0.0
9314 H 45.088 66.12 65.581 H 0.0 **** 0.0
9315 H 45.774 67.755 65.738 H 0.0 **** 0.0
9316 C 57.563 43.272 97.884 C 0.0 **** 0.0
9317 H 58.138 43.605 98.748 H 0.0 **** 0.0
9318 H 57.505 42.183 97.885 H 0.0 **** 0.0
9319 H 58.053 43.61 96.97 H 0.0 **** 0.0
9320 H 56.558 43.69 97.934 H 0.0 **** 0.0
9321 C 62.442 29.606 34.893 C 0.0 **** 0.0
9322 H 62.48 29.706 33.809 H 0.0 **** 0.0
9323 H 61.584 30.157 35.278 H 0.0 **** 0.0
9324 H 63.357 30.008 35.328 H 0.0 **** 0.0
9325 H 62.346 28.553 35.157 H 0.0 **** 0.0
9326 C 23.544 56.266 68.221 C 0.0 **** 0.0
9327 H 23.092 55.47 67.629 H 0.0 **** 0.0
9328 H 23.609 55.951 69.263 H 0.0 **** 0.0
9329 H 22.93 57.164 68.151 H 0.0 **** 0.0
9330 H 24.543 56.479 67.842 H 0.0 **** 0.0
9331 C 41.247 98.123 3.11 C 0.0 **** 0.0
9332 H 40.66 97.636 2.332 H 0.0 **** 0.0
9333 H 42.116 98.605 2.66 H 0.0 **** 0.0
9334 H 41.578 97.38 3.835 H 0.0 **** 0.0
9335 H 40.635 98.873 3.611 H 0.0 **** 0.0
9336 C 96.611 38.96 88.749 C 0.0 **** 0.0
9337 H 97.214 39.862 88.653 H 0.0 **** 0.0
9338 H 97.101 38.267 89.433 H 0.0 **** 0.0
9339 H 96.501 38.49 87.772 H 0.0 **** 0.0
9340 H 95.627 39.22 89.14 H 0.0 **** 0.0
9341 C 29.71 55.571 87.364 C 0.0 **** 0.0
9342 H 29.982 54.604 87.787 H 0.0 **** 0.0
9343 H 30.384 56.338 87.747 H 0.0 **** 0.0
9344 H 28.685 55.815 87.646 H 0.0 **** 0.0
9345 H 29.787 55.528 86.278 H 0.0 **** 0.0
9346 C 64.98 3.622 35.761 C 0.0 **** 0.0
9347 H 64.843 3.758 36.834 H 0.0 **** 0.0
9348 H 64.2 4.164 35.225 H 0.0 **** 0.0
9349 H 64.919 2.562 35.519 H 0.0 **** 0.0
9350 H 65.957 4.007 35.468 H 0.0 **** 0.0
9351 C 12.762 82.805 74.868 C 0.0 **** 0.0
9352 H 12.728 82.703 75.953 H 0.0 **** 0.0
9353 H 11.861 82.37 74.434 H 0.0 **** 0.0
9354 H 13.639 82.285 74.482 H 0.0 **** 0.0
9355 H 12.82 83.861 74.604 H 0.0 **** 0.0
9356 C 63.972 23.234 5.563 C 0.0 **** 0.0
9357 H 64.052 23.928 6.4 H 0.0 **** 0.0
9358 H 62.921 23.101 5.301 H 0.0 **** 0.0
9359 H 64.401 22.273 5.845 H 0.0 **** 0.0
9360 H 64.512 23.636 4.705 H 0.0 **** 0.0
9361 C 39.209 74.143 24.42 C 0.0 **** 0.0
9362 H 40.263 74.255 24.166 H 0.0 **** 0.0
9363 H 39.013 73.11 24.708 H 0.0 **** 0.0
9364 H 38.597 74.402 23.555 H 0.0 **** 0.0
9365 H 38.963 74.805 25.25 H 0.0 **** 0.0
9366 C 91.132 88.582 20.52 C 0.0 **** 0.0
9367 H 91.417 87.74 21.15 H 0.0 **** 0.0
9368 H 91.044 88.249 19.485 H 0.0 **** 0.0
9369 H 91.893 89.36 20.588 H 0.0 **** 0.0
9370 H 90.174 88.98 20.856 H 0.0 **** 0.0
9371 C 63.641 9.639 9.755 C 0.0 **** 0.0
9372 H 64.154 8.681 9.837 H 0.0 **** 0.0
9373 H 63.193 9.728 8.765 H 0.0 **** 0.0
9374 H 64.357 10.448 9.904 H 0.0 **** 0.0
9375 H 62.861 9.699 10.514 H 0.0 **** 0.0
9376 C 36.45 18.38 76.555 C 0.0 **** 0.0
9377 H 37.055 17.946 77.351 H 0.0 **** 0.0
9378 H 37.079 19.005 75.921 H 0.0 **** 0.0
9379 H 35.657 18.986 76.991 H 0.0 **** 0.0
9380 H 36.011 17.582 75.957 H 0.0 **** 0.0
9381 C 34.47 56.694 18.162 C 0.0 **** 0.0
9382 H 34.503 56.752 17.074 H 0.0 **** 0.0
9383 H 35.333 57.213 18.58 H 0.0 **** 0.0
9384 H 34.489 55.649 18.471 H 0.0 **** 0.0
9385 H 33.555 57.163 18.523 H 0.0 **** 0.0
9386 C 49.669 5.546 83.224 C 0.0 **** 0.0
9387 H 48.693 5.148 82.944 H 0.0 **** 0.0
9388 H 50.34 5.5 82.365 H 0.0 **** 0.0
9389 H 50.082 4.954 84.041 H 0.0 **** 0.0
9390 H 49.56 6.582 83.545 H 0.0 **** 0.0
9391 C 15.902 64.732 70.088 C 0.0 **** 0.0
9392 H 15.741 65.656 70.644 H 0.0 **** 0.0
9393 H 16.582 64.922 69.257 H 0.0 **** 0.0
9394 H 14.949 64.369 69.702 H 0.0 **** 0.0
9395 H 16.336 63.982 70.749 H 0.0 **** 0.0
9396 C 35.461 26.237 45.295 C 0.0 **** 0.0
9397 H 34.922 25.855 44.428 H 0.0 **** 0.0
9398 H 35.265 25.596 46.155 H 0.0 **** 0.0
9399 H 35.125 27.251 45.514 H 0.0 **** 0.0
9400 H 36.53 26.246 45.083 H 0.0 **** 0.0
9401 C 75.825 89.519 85.246 C 0.0 **** 0.0
9402 H 75.314 89.713 86.189 H 0.0 **** 0.0
9403 H 76.9 89.469 85.419 H 0.0 **** 0.0
9404 H 75.607 90.324 84.544 H 0.0 **** 0.0
9405 H 75.478 88.572 84.832 H 0.0 **** 0.0
9406 C 30.709 90.96 29.14 C 0.0 **** 0.0
9407 H 31.615 91.464 29.475 H 0.0 **** 0.0
9408 H 29.854 91.625 29.27 H 0.0 **** 0.0
9409 H 30.558 90.055 29.729 H 0.0 **** 0.0
9410 H 30.808 90.696 28.087 H 0.0 **** 0.0
9411 C 55.431 54.116 39.674 C 0.0 **** 0.0
9412 H 55.749 53.537 40.54 H 0.0 **** 0.0
9413 H 56.083 54.982 39.557 H 0.0 **** 0.0
9414 H 54.404 54.452 39.819 H 0.0 **** 0.0
9415 H 55.488 53.495 38.78 H 0.0 **** 0.0
9416 C 26.461 18.667 31.73 C 0.0 **** 0.0
9417 H 26.646 18.867 32.786 H 0.0 **** 0.0
9418 H 25.887 19.489 31.301 H 0.0 **** 0.0
9419 H 25.898 17.74 31.63 H 0.0 **** 0.0
9420 H 27.412 18.574 31.206 H 0.0 **** 0.0
9421 C 83.337 13.657 44.709 C 0.0 **** 0.0
9422 H 82.704 13.206 45.473 H 0.0 **** 0.0
9423 H 82.918 13.451 43.723 H 0.0 **** 0.0
9424 H 84.34 13.236 44.773 H 0.0 **** 0.0
9425 H 83.384 14.735 44.866 H 0.0 **** 0.0
9426 C 22.659 20.803 71.621 C 0.0 **** 0.0
9427 H 22.474 21.746 71.106 H 0.0 **** 0.0
9428 H 23.286 20.984 72.494 H 0.0 **** 0.0
9429 H 23.167 20.115 70.945 H 0.0 **** 0.0
9430 H 21.711 20.37 71.937 H 0.0 **** 0.0
9431 C 46.296 57.327 88.839 C 0.0 **** 0.0
9432 H 46.455 57.917 89.741 H 0.0 **** 0.0
9433 H 47.252 57.15 88.346 H 0.0 **** 0.0
9434 H 45.633 57.868 88.163 H 0.0 **** 0.0
9435 H 45.842 56.372 89.105 H 0.0 **** 0.0
9436 C 7.244 77.144 47.113 C 0.0 **** 0.0
9437 H 6.869 76.906 48.109 H 0.0 **** 0.0
9438 H 7.862 78.041 47.163 H 0.0 **** 0.0
9439 H 6.403 77.319 46.442 H 0.0 **** 0.0
9440 H 7.84 76.311 46.741 H 0.0 **** 0.0
9441 C 52.664 17.964 46.537 C 0.0 **** 0.0
9442 H 53.514 18.501 46.115 H 0.0 **** 0.0
9443 H 51.928 18.681 46.903 H 0.0 **** 0.0
9444 H 53.003 17.338 47.361 H 0.0 **** 0.0
9445 H 52.211 17.339 45.768 H 0.0 **** 0.0
9446 C 50.101 71.035 59.381 C 0.0 **** 0.0
9447 H 49.75 70.132 59.88 H 0.0 **** 0.0
9448 H 50.463 70.78 58.384 H 0.0 **** 0.0
9449 H 50.911 71.478 59.96 H 0.0 **** 0.0
9450 H 49.28 71.747 59.298 H 0.0 **** 0.0
9451 C 83.938 96.374 54.562 C 0.0 **** 0.0
9452 H 84.668 97.035 55.028 H 0.0 **** 0.0
9453 H 84.166 96.273 53.501 H 0.0 **** 0.0
9454 H 82.939 96.794 54.682 H 0.0 **** 0.0
9455 H 83.98 95.394 55.038 H 0.0 **** 0.0
9456 C 47.35 57.845 44.3 C 0.0 **** 0.0
9457 H 47.351 57.843 45.39 H 0.0 **** 0.0
9458 H 47.313 56.818 43.935 H 0.0 **** 0.0
9459 H 48.257 58.328 43.937 H 0.0 **** 0.0
9460 H 46.478 58.391 43.939 H 0.0 **** 0.0
9461 C 90.592 66.931 69.098 C 0.0 **** 0.0
9462 H 90.419 67.599 69.942 H 0.0 **** 0.0
9463 H 89.763 66.228 69.016 H 0.0 **** 0.0
9464 H 91.521 66.382 69.255 H 0.0 **** 0.0
9465 H 90.666 67.516 68.181 H 0.0 **** 0.0
9466 C 92.864 77.256 12.874 C 0.0 **** 0.0
9467 H 92.735 77.277 11.792 H 0.0 **** 0.0
9468 H 91.892 77.352 13.357 H 0.0 **** 0.0
9469 H 93.505 78.083 13.179 H 0.0 **** 0.0
9470 H 93.325 76.312 13.166 H 0.0 **** 0.0
9471 C 23.306 75.217 30.984 C 0.0 **** 0.0
9472 H 23.346 75.221 29.894 H 0.0 **** 0.0
9473 H 22.808 74.31 31.326 H 0.0 **** 0.0
9474 H 22.75 76.089 31.329 H 0.0 **** 0.0
9475 H 24.319 75.25 31.384 H 0.0 **** 0.0
9476 C 10.563 37.475 96.132 C 0.0 **** 0.0
9477 H 10.438 37.499 97.214 H 0.0 **** 0.0
9478 H 9.776 38.065 95.663 H 0.0 **** 0.0
9479 H 10.503 36.445 95.782 H 0.0 **** 0.0
9480 H 11.536 37.892 95.869 H 0.0 **** 0.0
9481 C 4.97 56.542 71.901 C 0.0 **** 0.0
9482 H 5.278 56.24 72.902 H 0.0 **** 0.0
9483 H 3.974 56.148 71.694 H 0.0 **** 0.0
9484 H 5.676 56.149 71.17 H 0.0 **** 0.0
9485 H 4.95 57.63 71.84 H 0.0 **** 0.0
9486 C 51.465 59.842 5.012 C 0.0 **** 0.0
9487 H 51.538 59.992 3.934 H 0.0 **** 0.0
9488 H 51.525 60.807 5.517 H 0.0 **** 0.0
9489 H 52.285 59.206 5.345 H 0.0 **** 0.0
9490 H 50.515 59.365 5.249 H 0.0 **** 0.0
9491 C 73.306 47.684 91.526 C 0.0 **** 0.0
9492 H 72.687 48.407 90.994 H 0.0 **** 0.0
9493 H 74.185 47.449 90.925 H 0.0 **** 0.0
9494 H 72.732 46.775 91.703 H 0.0 **** 0.0
9495 H 73.62 48.108 92.48 H 0.0 **** 0.0
9496 C 56.182 83.655 9.164 C 0.0 **** 0.0
9497 H 56.386 83.671 8.094 H 0.0 **** 0.0
9498 H 55.825 82.666 9.451 H 0.0 **** 0.0
9499 H 55.421 84.399 9.4 H 0.0 **** 0.0
9500 H 57.096 83.885 9.711 H 0.0 **** 0.0
9501 C 65.096 45.388 91.206 C 0.0 **** 0.0
9502 H 64.868 44.431 91.676 H 0.0 **** 0.0
9503 H 64.231 46.047 91.286 H 0.0 **** 0.0
9504 H 65.336 45.229 90.155 H 0.0 **** 0.0
9505 H 65.948 45.845 91.709 H 0.0 **** 0.0
9506 C 30.204 10.906 59.876 C 0.0 **** 0.0
9507 H 30.189 11.081 60.952 H 0.0 **** 0.0
9508 H 29.734 11.747 59.365 H 0.0 **** 0.0
9509 H 29.658 9.991 59.649 H 0.0 **** 0.0
9510 H 31.236 10.807 59.539 H 0.0 **** 0.0
9511 C 63.253 73.081 60.128 C 0.0 **** 0.0
9512 H 62.636 72.26 59.763 H 0.0 **** 0.0
9513 H 63.317 73.855 59.363 H 0.0 **** 0.0
9514 H 64.252 72.711 60.356 H 0.0 **** 0.0
9515 H 62.805 73.498 61.03 H 0.0 **** 0.0
9516 C 54.271 65.154 87.825 C 0.0 **** 0.0
9517 H 53.723 65.076 88.765 H 0.0 **** 0.0
9518 H 54.876 64.258 87.683 H 0.0 **** 0.0
9519 H 54.918 66.03 87.853 H 0.0 **** 0.0
9520 H 53.564 65.25 87.0 H 0.0 **** 0.0
9521 C 5.356 80.186 46.128 C 0.0 **** 0.0
9522 H 5.108 80.481 47.148 H 0.0 **** 0.0
9523 H 4.723 80.733 45.429 H 0.0 **** 0.0
9524 H 5.189 79.116 46.01 H 0.0 **** 0.0
9525 H 6.402 80.416 45.928 H 0.0 **** 0.0
9526 C 61.45 66.142 2.865 C 0.0 **** 0.0
9527 H 60.919 67.033 2.528 H 0.0 **** 0.0
9528 H 61.275 65.328 2.161 H 0.0 **** 0.0
9529 H 61.087 65.855 3.852 H 0.0 **** 0.0
9530 H 62.518 66.355 2.917 H 0.0 **** 0.0
9531 C 12.996 56.214 82.654 C 0.0 **** 0.0
9532 H 12.912 55.447 83.424 H 0.0 **** 0.0
9533 H 12.325 57.04 82.89 H 0.0 **** 0.0
9534 H 12.726 55.789 81.687 H 0.0 **** 0.0
9535 H 14.023 56.579 82.616 H 0.0 **** 0.0
9536 C 15.359 95.879 75.506 C 0.0 **** 0.0
9537 H 15.493 95.889 76.587 H 0.0 **** 0.0
9538 H 14.316 95.663 75.271 H 0.0 **** 0.0
9539 H 15.997 95.112 75.067 H 0.0 **** 0.0
9540 H 15.628 96.854 75.098 H 0.0 **** 0.0
9541 C 32.295 18.276 36.606 C 0.0 **** 0.0
9542 H 32.799 18.088 37.555 H 0.0 **** 0.0
9543 H 32.303 19.345 36.396 H 0.0 **** 0.0
9544 H 31.265 17.925 36.667 H 0.0 **** 0.0
9545 H 32.814 17.744 35.808 H 0.0 **** 0.0
9546 C 79.978 35.533 37.709 C 0.0 **** 0.0
9547 H 79.122 35.448 37.04 H 0.0 **** 0.0
9548 H 79.641 35.451 38.742 H 0.0 **** 0.0
9549 H 80.462 36.498 37.559 H 0.0 **** 0.0
9550 H 80.688 34.734 37.493 H 0.0 **** 0.0
9551 C 92.166 23.331 27.349 C 0.0 **** 0.0
9552 H 91.939 23.833 28.29 H 0.0 **** 0.0
9553 H 91.587 22.41 27.28 H 0.0 **** 0.0
9554 H 93.229 23.096 27.309 H 0.0 **** 0.0
9555 H 91.907 23.986 26.517 H 0.0 **** 0.0
9556 C 75.353 77.072 76.683 C 0.0 **** 0.0
9557 H 74.576 77.642 76.174 H 0.0 **** 0.0
9558 H 75.612 76.197 76.085 H 0.0 **** 0.0
9559 H 74.987 76.751 77.658 H 0.0 **** 0.0
9560 H 76.236 77.697 76.813 H 0.0 **** 0.0
9561 C 64.359 71.439 20.926 C 0.0 **** 0.0
9562 H 64.58 72.106 20.092 H 0.0 **** 0.0
9563 H 65.269 71.26 21.499 H 0.0 **** 0.0
9564 H 63.978 70.492 20.542 H 0.0 **** 0.0
9565 H 63.608 71.899 21.569 H 0.0 **** 0.0
9566 C 74.081 21.322 64.185 C 0.0 **** 0.0
9567 H 75.085 21.669 64.432 H 0.0 **** 0.0
9568 H 74.144 20.351 63.693 H 0.0 **** 0.0
9569 H 73.604 22.038 63.516 H 0.0 **** 0.0
9570 H 73.494 21.23 65.099 H 0.0 **** 0.0
9571 C 2.355 42.578 41.287 C 0.0 **** 0.0
9572 H 2.322 42.595 40.198 H 0.0 **** 0.0
9573 H 3.167 43.216 41.636 H 0.0 **** 0.0
9574 H 2.522 41.557 41.629 H 0.0 **** 0.0
9575 H 1.408 42.944 41.685 H 0.0 **** 0.0
9576 C 4.821 51.659 79.976 C 0.0 **** 0.0
9577 H 5.233 51.133 80.838 H 0.0 **** 0.0
9578 H 4.209 52.493 80.319 H 0.0 **** 0.0
9579 H 4.208 50.974 79.391 H 0.0 **** 0.0
9580 H 5.636 52.036 79.358 H 0.0 **** 0.0
9581 C 92.491 29.6 51.032 C 0.0 **** 0.0
9582 H 91.782 29.281 51.796 H 0.0 **** 0.0
9583 H 92.705 30.662 51.157 H 0.0 **** 0.0
9584 H 92.062 29.429 50.045 H 0.0 **** 0.0
9585 H 93.413 29.029 51.131 H 0.0 **** 0.0
9586 C 73.939 50.359 25.73 C 0.0 **** 0.0
9587 H 73.848 50.323 24.644 H 0.0 **** 0.0
9588 H 73.63 51.342 26.087 H 0.0 **** 0.0
9589 H 74.975 50.178 26.014 H 0.0 **** 0.0
9590 H 73.301 49.594 26.173 H 0.0 **** 0.0
9591 C 39.993 14.572 33.222 C 0.0 **** 0.0
9592 H 39.531 13.602 33.04 H 0.0 **** 0.0
9593 H 39.222 15.343 33.236 H 0.0 **** 0.0
9594 H 40.709 14.788 32.43 H 0.0 **** 0.0
9595 H 40.507 14.555 34.183 H 0.0 **** 0.0
9596 C 37.239 34.875 18.834 C 0.0 **** 0.0
9597 H 37.546 34.374 19.752 H 0.0 **** 0.0
9598 H 38.08 34.914 18.142 H 0.0 **** 0.0
9599 H 36.911 35.889 19.067 H 0.0 **** 0.0
9600 H 36.417 34.324 18.377 H 0.0 **** 0.0
9601 C 11.941 87.026 88.434 C 0.0 **** 0.0
9602 H 12.963 86.649 88.387 H 0.0 **** 0.0
9603 H 11.791 87.767 87.649 H 0.0 **** 0.0
9604 H 11.768 87.486 89.407 H 0.0 **** 0.0
9605 H 11.243 86.2 88.294 H 0.0 **** 0.0
9606 C 5.504 33.296 84.09 C 0.0 **** 0.0
9607 H 6.108 33.835 83.36 H 0.0 **** 0.0
9608 H 4.488 33.691 84.084 H 0.0 **** 0.0
9609 H 5.937 33.42 85.083 H 0.0 **** 0.0
9610 H 5.484 32.237 83.833 H 0.0 **** 0.0
9611 C 20.043 82.437 37.397 C 0.0 **** 0.0
9612 H 20.62 83.356 37.298 H 0.0 **** 0.0
9613 H 19.765 82.292 38.441 H 0.0 **** 0.0
9614 H 20.644 81.592 37.06 H 0.0 **** 0.0
9615 H 19.142 82.507 36.787 H 0.0 **** 0.0
9616 C 38.429 60.418 80.252 C 0.0 **** 0.0
9617 H 38.094 61.156 79.524 H 0.0 **** 0.0
9618 H 38.762 59.52 79.732 H 0.0 **** 0.0
9619 H 37.606 60.167 80.92 H 0.0 **** 0.0
9620 H 39.255 60.83 80.832 H 0.0 **** 0.0
9621 C 63.589 64.818 73.22 C 0.0 **** 0.0
9622 H 63.37 64.689 72.16 H 0.0 **** 0.0
9623 H 62.774 65.365 73.695 H 0.0 **** 0.0
9624 H 64.517 65.379 73.334 H 0.0 **** 0.0
9625 H 63.694 63.841 73.691 H 0.0 **** 0.0
9626 C 64.067 17.685 39.772 C 0.0 **** 0.0
9627 H 64.665 18.565 39.534 H 0.0 **** 0.0
9628 H 63.023 17.977 39.889 H 0.0 **** 0.0
9629 H 64.427 17.242 40.701 H 0.0 **** 0.0
9630 H 64.154 16.958 38.965 H 0.0 **** 0.0
9631 C 40.749 57.321 34.329 C 0.0 **** 0.0
9632 H 40.208 57.155 33.398 H 0.0 **** 0.0
9633 H 40.078 57.763 35.066 H 0.0 **** 0.0
9634 H 41.585 57.998 34.148 H 0.0 **** 0.0
9635 H 41.127 56.37 34.705 H 0.0 **** 0.0
9636 C 12.073 3.834 87.851 C 0.0 **** 0.0
9637 H 12.895 4.339 88.359 H 0.0 **** 0.0
9638 H 11.152 4.396 88.004 H 0.0 **** 0.0
9639 H 11.958 2.829 88.256 H 0.0 **** 0.0
9640 H 12.29 3.773 86.784 H 0.0 **** 0.0
9641 C 18.683 77.188 98.093 C 0.0 **** 0.0
9642 H 18.722 76.479 97.266 H 0.0 **** 0.0
9643 H 18.372 76.67 99.0 H 0.0 **** 0.0
9644 H 17.968 77.978 97.861 H 0.0 **** 0.0
9645 H 19.67 77.625 98.243 H 0.0 **** 0.0
9646 C 37.954 37.732 45.231 C 0.0 **** 0.0
9647 H 37.807 36.81 45.793 H 0.0 **** 0.0
9648 H 37.146 37.851 44.51 H 0.0 **** 0.0
9649 H 38.908 37.689 44.705 H 0.0 **** 0.0
9650 H 37.956 38.579 45.917 H 0.0 **** 0.0
9651 C 6.217 22.424 29.668 C 0.0 **** 0.0
9652 H 6.724 21.686 29.047 H 0.0 **** 0.0
9653 H 5.165 22.155 29.766 H 0.0 **** 0.0
9654 H 6.3 23.407 29.204 H 0.0 **** 0.0
9655 H 6.68 22.448 30.655 H 0.0 **** 0.0
9656 C 23.402 62.145 34.816 C 0.0 **** 0.0
9657 H 23.139 62.986 34.174 H 0.0 **** 0.0
9658 H 22.643 61.368 34.726 H 0.0 **** 0.0
9659 H 23.456 62.483 35.851 H 0.0 **** 0.0
9660 H 24.37 61.746 34.514 H 0.0 **** 0.0
9661 C 69.219 80.596 4.075 C 0.0 **** 0.0
9662 H 69.159 80.592 5.164 H 0.0 **** 0.0
9663 H 70.256 80.453 3.769 H 0.0 **** 0.0
9664 H 68.856 81.551 3.695 H 0.0 **** 0.0
9665 H 68.607 79.789 3.675 H 0.0 **** 0.0
9666 C 4.91 4.717 27.63 C 0.0 **** 0.0
9667 H 4.659 5.424 26.839 H 0.0 **** 0.0
9668 H 3.993 4.315 28.061 H 0.0 **** 0.0
9669 H 5.484 5.226 28.404 H 0.0 **** 0.0
9670 H 5.503 3.903 27.214 H 0.0 **** 0.0
9671 C 29.9 11.204 93.288 C 0.0 **** 0.0
9672 H 30.48 11.88 93.915 H 0.0 **** 0.0
9673 H 29.151 10.697 93.897 H 0.0 **** 0.0
9674 H 30.564 10.467 92.837 H 0.0 **** 0.0
9675 H 29.403 11.775 92.502 H 0.0 **** 0.0
9676 C 65.007 27.757 86.379 C 0.0 **** 0.0
9677 H 64.622 27.081 85.616 H 0.0 **** 0.0
9678 H 64.414 27.655 87.288 H 0.0 **** 0.0
9679 H 64.946 28.784 86.018 H 0.0 **** 0.0
9680 H 66.047 27.509 86.593 H 0.0 **** 0.0
9681 C 45.366 10.146 7.433 C 0.0 **** 0.0
9682 H 46.091 9.769 6.711 H 0.0 **** 0.0
9683 H 45.497 9.627 8.383 H 0.0 **** 0.0
9684 H 44.357 9.971 7.06 H 0.0 **** 0.0
9685 H 45.52 11.215 7.578 H 0.0 **** 0.0
9686 C 39.398 79.526 67.332 C 0.0 **** 0.0
9687 H 40.378 79.815 66.953 H 0.0 **** 0.0
9688 H 38.792 80.419 67.488 H 0.0 **** 0.0
9689 H 39.516 78.996 68.277 H 0.0 **** 0.0
9690 H 38.906 78.875 66.609 H 0.0 **** 0.0
9691 C 95.128 95.092 44.652 C 0.0 **** 0.0
9692 H 94.989 95.952 45.308 H 0.0 **** 0.0
9693 H 94.207 94.903 44.1 H 0.0 **** 0.0
9694 H 95.379 94.216 45.251 H 0.0 **** 0.0
9695 H 95.937 95.297 43.951 H 0.0 **** 0.0
9696 C 5.104 77.175 8.381 C 0.0 **** 0.0
9697 H 4.859 76.771 7.399 H 0.0 **** 0.0
9698 H 4.558 76.624 9.147 H 0.0 **** 0.0
9699 H 4.823 78.228 8.42 H 0.0 **** 0.0
9700 H 6.175 77.078 8.556 H 0.0 **** 0.0
9701 C 27.36 91.097 23.497 C 0.0 **** 0.0
9702 H 27.513 91.34 22.446 H 0.0 **** 0.0
9703 H 28.31 91.161 24.027 H 0.0 **** 0.0
9704 H 26.963 90.085 23.582 H 0.0 **** 0.0
9705 H 26.652 91.802 23.933 H 0.0 **** 0.0
9706 C 32.632 50.203 7.205 C 0.0 **** 0.0
9707 H 32.346 51.197 6.859 H 0.0 **** 0.0
9708 H 31.897 49.846 7.927 H 0.0 **** 0.0
9709 H 33.613 50.252 7.678 H 0.0 **** 0.0
9710 H 32.671 49.52 6.357 H 0.0 **** 0.0
9711 C 21.03 47.252 44.71 C 0.0 **** 0.0
9712 H 21.065 47.187 43.622 H 0.0 **** 0.0
9713 H 21.037 46.248 45.135 H 0.0 **** 0.0
9714 H 20.119 47.768 45.013 H 0.0 **** 0.0
9715 H 21.897 47.806 45.069 H 0.0 **** 0.0
9716 C 51.11 63.289 8.215 C 0.0 **** 0.0
9717 H 51.004 62.218 8.391 H 0.0 **** 0.0
9718 H 51.844 63.7 8.908 H 0.0 **** 0.0
9719 H 50.149 63.779 8.369 H 0.0 **** 0.0
9720 H 51.443 63.456 7.19 H 0.0 **** 0.0
9721 C 33.144 30.166 94.33 C 0.0 **** 0.0
9722 H 33.071 30.418 93.272 H 0.0 **** 0.0
9723 H 32.169 29.841 94.694 H 0.0 **** 0.0
9724 H 33.468 31.043 94.891 H 0.0 **** 0.0
9725 H 33.868 29.362 94.462 H 0.0 **** 0.0
9726 C 13.447 91.938 18.095 C 0.0 **** 0.0
9727 H 12.637 92.119 18.803 H 0.0 **** 0.0
9728 H 14.304 92.558 18.358 H 0.0 **** 0.0
9729 H 13.112 92.188 17.089 H 0.0 **** 0.0
9730 H 13.733 90.887 18.133 H 0.0 **** 0.0
9731 C 79.839 10.165 52.0 C 0.0 **** 0.0
9732 H 80.376 9.945 52.922 H 0.0 **** 0.0
9733 H 79.438 9.241 51.583 H 0.0 **** 0.0
9734 H 80.521 10.622 51.282 H 0.0 **** 0.0
9735 H 79.021 10.854 52.212 H 0.0 **** 0.0
9736 C 33.068 16.897 70.801 C 0.0 **** 0.0
9737 H 33.304 16.664 71.839 H 0.0 **** 0.0
9738 H 32.272 17.641 70.767 H 0.0 **** 0.0
9739 H 32.741 15.991 70.29 H 0.0 **** 0.0
9740 H 33.956 17.292 70.307 H 0.0 **** 0.0
9741 C 11.102 4.326 40.883 C 0.0 **** 0.0
9742 H 11.933 3.8 41.353 H 0.0 **** 0.0
9743 H 11.289 4.419 39.813 H 0.0 **** 0.0
9744 H 11.005 5.318 41.323 H 0.0 **** 0.0
9745 H 10.181 3.766 41.044 H 0.0 **** 0.0
9746 C 24.1 1.819 41.426 C 0.0 **** 0.0
9747 H 24.51 2.801 41.189 H 0.0 **** 0.0
9748 H 23.209 1.643 40.823 H 0.0 **** 0.0
9749 H 23.836 1.782 42.483 H 0.0 **** 0.0
9750 H 24.844 1.053 41.209 H 0.0 **** 0.0
9751 C 35.55 53.14 89.801 C 0.0 **** 0.0
9752 H 35.802 54.173 90.042 H 0.0 **** 0.0
9753 H 36.308 52.727 89.135 H 0.0 **** 0.0
9754 H 34.578 53.109 89.31 H 0.0 **** 0.0
9755 H 35.513 52.552 90.718 H 0.0 **** 0.0
9756 C 75.764 34.874 48.693 C 0.0 **** 0.0
9757 H 74.901 34.602 49.301 H 0.0 **** 0.0
9758 H 75.766 35.951 48.526 H 0.0 **** 0.0
9759 H 75.71 34.357 47.735 H 0.0 **** 0.0
9760 H 76.679 34.584 49.21 H 0.0 **** 0.0
9761 C 72.828 69.592 18.116 C 0.0 **** 0.0
9762 H 72.236 69.939 17.27 H 0.0 **** 0.0
9763 H 73.608 68.918 17.762 H 0.0 **** 0.0
9764 H 72.183 69.065 18.819 H 0.0 **** 0.0
9765 H 73.286 70.448 18.614 H 0.0 **** 0.0
9766 C 4.365 90.061 30.684 C 0.0 **** 0.0
9767 H 4.243 88.981 30.604 H 0.0 **** 0.0
9768 H 4.919 90.429 29.82 H 0.0 **** 0.0
9769 H 4.913 90.299 31.596 H 0.0 **** 0.0
9770 H 3.384 90.536 30.716 H 0.0 **** 0.0
9771 C 69.898 25.683 15.301 C 0.0 **** 0.0
9772 H 68.996 25.27 15.753 H 0.0 **** 0.0
9773 H 70.774 25.317 15.838 H 0.0 **** 0.0
9774 H 69.866 26.771 15.357 H 0.0 **** 0.0
9775 H 69.956 25.374 14.258 H 0.0 **** 0.0
9776 C 42.256 67.852 47.774 C 0.0 **** 0.0
9777 H 42.307 67.897 46.686 H 0.0 **** 0.0
9778 H 41.89 66.872 48.08 H 0.0 **** 0.0
9779 H 41.578 68.624 48.138 H 0.0 **** 0.0
9780 H 43.25 68.015 48.191 H 0.0 **** 0.0
9781 C 53.147 52.326 4.848 C 0.0 **** 0.0
9782 H 53.121 52.391 3.76 H 0.0 **** 0.0
9783 H 52.704 51.382 5.166 H 0.0 **** 0.0
9784 H 52.582 53.155 5.274 H 0.0 **** 0.0
9785 H 54.181 52.377 5.19 H 0.0 **** 0.0
9786 C 49.768 40.255 13.338 C 0.0 **** 0.0
9787 H 48.974 40.51 14.04 H 0.0 **** 0.0
9788 H 49.358 40.207 12.329 H 0.0 **** 0.0
9789 H 50.193 39.288 13.605 H 0.0 **** 0.0
9790 H 50.546 41.018 13.379 H 0.0 **** 0.0
9791 C 15.588 58.791 66.591 C 0.0 **** 0.0
9792 H 14.826 58.854 67.369 H 0.0 **** 0.0
9793 H 16.153 59.722 66.561 H 0.0 **** 0.0
9794 H 15.108 58.625 65.627 H 0.0 **** 0.0
9795 H 16.262 57.963 66.809 H 0.0 **** 0.0
9796 C 43.599 70.725 47.565 C 0.0 **** 0.0
9797 H 44.132 71.653 47.773 H 0.0 **** 0.0
9798 H 44.285 70.004 47.118 H 0.0 **** 0.0
9799 H 42.78 70.923 46.873 H 0.0 **** 0.0
9800 H 43.2 70.319 48.494 H 0.0 **** 0.0
9801 C 96.561 43.692 83.398 C 0.0 **** 0.0
9802 H 95.559 43.441 83.05 H 0.0 **** 0.0
9803 H 96.557 43.782 84.484 H 0.0 **** 0.0
9804 H 96.873 44.638 82.955 H 0.0 **** 0.0
9805 H 97.256 42.905 83.1 H 0.0 **** 0.0
9806 C 50.098 13.993 13.921 C 0.0 **** 0.0
9807 H 50.142 13.989 12.832 H 0.0 **** 0.0
9808 H 49.364 14.728 14.252 H 0.0 **** 0.0
9809 H 51.077 14.25 14.324 H 0.0 **** 0.0
9810 H 49.807 13.004 14.276 H 0.0 **** 0.0
9811 C 93.843 75.265 43.366 C 0.0 **** 0.0
9812 H 94.709 75.55 43.963 H 0.0 **** 0.0
9813 H 94.139 75.165 42.321 H 0.0 **** 0.0
9814 H 93.073 76.031 43.454 H 0.0 **** 0.0
9815 H 93.451 74.313 43.725 H 0.0 **** 0.0
9816 C 28.662 7.357 33.559 C 0.0 **** 0.0
9817 H 28.689 7.339 32.47 H 0.0 **** 0.0
9818 H 28.698 6.337 33.94 H 0.0 **** 0.0
9819 H 27.742 7.838 33.892 H 0.0 **** 0.0
9820 H 29.52 7.916 33.934 H 0.0 **** 0.0
9821 C 54.949 15.865 29.472 C 0.0 **** 0.0
9822 H 54.979 16.14 28.418 H 0.0 **** 0.0
9823 H 54.684 16.738 30.068 H 0.0 **** 0.0
9824 H 55.929 15.499 29.779 H 0.0 **** 0.0
9825 H 54.205 15.082 29.622 H 0.0 **** 0.0
9826 C 39.397 49.235 28.394 C 0.0 **** 0.0
9827 H 39.389 49.321 27.307 H 0.0 **** 0.0
9828 H 39.791 48.259 28.678 H 0.0 **** 0.0
9829 H 38.381 49.341 28.774 H 0.0 **** 0.0
9830 H 40.026 50.018 28.816 H 0.0 **** 0.0
9831 C 75.617 93.833 27.223 C 0.0 **** 0.0
9832 H 76.553 93.575 26.728 H 0.0 **** 0.0
9833 H 75.777 94.684 27.884 H 0.0 **** 0.0
9834 H 75.268 92.98 27.806 H 0.0 **** 0.0
9835 H 74.869 94.09 26.473 H 0.0 **** 0.0
9836 C 44.421 83.743 2.151 C 0.0 **** 0.0
9837 H 45.198 83.964 2.882 H 0.0 **** 0.0
9838 H 44.081 84.672 1.691 H 0.0 **** 0.0
9839 H 43.582 83.256 2.647 H 0.0 **** 0.0
9840 H 44.822 83.083 1.382 H 0.0 **** 0.0
9841 C 89.012 78.723 47.978 C 0.0 **** 0.0
9842 H 89.485 79.387 47.255 H 0.0 **** 0.0
9843 H 89.685 78.566 48.821 H 0.0 **** 0.0
9844 H 88.793 77.767 47.504 H 0.0 **** 0.0
9845 H 88.085 79.174 48.332 H 0.0 **** 0.0
9846 C 63.633 83.272 67.834 C 0.0 **** 0.0
9847 H 63.959 82.244 67.99 H 0.0 **** 0.0
9848 H 64.105 83.671 66.936 H 0.0 **** 0.0
9849 H 63.918 83.877 68.695 H 0.0 **** 0.0
9850 H 62.549 83.295 67.717 H 0.0 **** 0.0
9851 C 13.771 43.938 57.509 C 0.0 **** 0.0
9852 H 14.664 44.46 57.854 H 0.0 **** 0.0
9853 H 13.067 44.66 57.095 H 0.0 **** 0.0
9854 H 13.307 43.419 58.348 H 0.0 **** 0.0
9855 H 14.046 43.216 56.741 H 0.0 **** 0.0
9856 C 95.619 28.556 89.493 C 0.0 **** 0.0
9857 H 94.854 28.063 88.892 H 0.0 **** 0.0
9858 H 96.185 27.807 90.046 H 0.0 **** 0.0
9859 H 95.144 29.244 90.193 H 0.0 **** 0.0
9860 H 96.292 29.111 88.839 H 0.0 **** 0.0
9861 C 54.75 98.208 27.182 C 0.0 **** 0.0
9862 H 54.945 98.327 28.248 H 0.0 **** 0.0
9863 H 54.286 97.238 27.004 H 0.0 **** 0.0
9864 H 55.69 98.268 26.633 H 0.0 **** 0.0
9865 H 54.081 99.0 26.845 H 0.0 **** 0.0
9866 C 22.668 92.12 59.434 C 0.0 **** 0.0
9867 H 23.256 91.893 60.323 H 0.0 **** 0.0
9868 H 21.641 92.345 59.726 H 0.0 **** 0.0
9869 H 22.675 91.261 58.764 H 0.0 **** 0.0
9870 H 23.098 92.983 58.925 H 0.0 **** 0.0
9871 C 59.855 56.952 92.133 C 0.0 **** 0.0
9872 H 59.864 57.33 93.156 H 0.0 **** 0.0
9873 H 60.834 57.106 91.68 H 0.0 **** 0.0
9874 H 59.099 57.486 91.557 H 0.0 **** 0.0
9875 H 59.621 55.888 92.142 H 0.0 **** 0.0
9876 C 54.463 79.097 5.755 C 0.0 **** 0.0
9877 H 54.258 79.16 6.824 H 0.0 **** 0.0
9878 H 54.741 78.075 5.498 H 0.0 **** 0.0
9879 H 55.281 79.771 5.501 H 0.0 **** 0.0
9880 H 53.571 79.383 5.197 H 0.0 **** 0.0
9881 C 93.371 26.88 37.43 C 0.0 **** 0.0
9882 H 93.328 26.79 36.344 H 0.0 **** 0.0
9883 H 93.794 27.849 37.697 H 0.0 **** 0.0
9884 H 93.997 26.085 37.835 H 0.0 **** 0.0
9885 H 92.365 26.796 37.841 H 0.0 **** 0.0
9886 C 56.451 22.652 96.142 C 0.0 **** 0.0
9887 H 55.85 22.573 95.237 H 0.0 **** 0.0
9888 H 56.982 21.714 96.308 H 0.0 **** 0.0
9889 H 55.801 22.857 96.993 H 0.0 **** 0.0
9890 H 57.171 23.463 96.031 H 0.0 **** 0.0
9891 C 86.756 74.875 76.105 C 0.0 **** 0.0
9892 H 87.766 74.679 75.743 H 0.0 **** 0.0
9893 H 86.032 74.463 75.402 H 0.0 **** 0.0
9894 H 86.605 75.95 76.195 H 0.0 **** 0.0
9895 H 86.623 74.406 77.08 H 0.0 **** 0.0
9896 C 71.246 17.323 58.611 C 0.0 **** 0.0
9897 H 70.912 16.969 59.587 H 0.0 **** 0.0
9898 H 70.519 18.033 58.215 H 0.0 **** 0.0
9899 H 71.337 16.478 57.93 H 0.0 **** 0.0
9900 H 72.214 17.813 58.715 H 0.0 **** 0.0
9901 C 36.466 95.269 76.723 C 0.0 **** 0.0
9902 H 36.463 95.26 75.633 H 0.0 **** 0.0
9903 H 36.875 96.216 77.076 H 0.0 **** 0.0
9904 H 37.08 94.448 77.092 H 0.0 **** 0.0
9905 H 35.446 95.154 77.09 H 0.0 **** 0.0
9906 C 83.645 22.488 18.755 C 0.0 **** 0.0
9907 H 83.733 22.58 19.838 H 0.0 **** 0.0
9908 H 84.147 23.33 18.277 H 0.0 **** 0.0
9909 H 82.591 22.487 18.476 H 0.0 **** 0.0
9910 H 84.108 21.557 18.431 H 0.0 **** 0.0
9911 C 1.425 40.402 13.285 C 0.0 **** 0.0
9912 H 1.513 39.316 13.278 H 0.0 **** 0.0
9913 H 0.845 40.714 14.154 H 0.0 **** 0.0
9914 H 0.923 40.731 12.375 H 0.0 **** 0.0
9915 H 2.419 40.846 13.333 H 0.0 **** 0.0
9916 C 51.57 15.294 92.606 C 0.0 **** 0.0
9917 H 50.545 14.949 92.47 H 0.0 **** 0.0
9918 H 51.664 16.311 92.223 H 0.0 **** 0.0
9919 H 52.249 14.637 92.063 H 0.0 **** 0.0
9920 H 51.821 15.28 93.666 H 0.0 **** 0.0
9921 C 31.184 38.962 58.115 C 0.0 **** 0.0
9922 H 31.651 39.744 57.516 H 0.0 **** 0.0
9923 H 30.494 38.391 57.492 H 0.0 **** 0.0
9924 H 30.637 39.416 58.941 H 0.0 **** 0.0
9925 H 31.953 38.298 58.509 H 0.0 **** 0.0
9926 C 48.106 23.545 30.433 C 0.0 **** 0.0
9927 H 48.268 23.536 29.355 H 0.0 **** 0.0
9928 H 49.053 23.727 30.941 H 0.0 **** 0.0
9929 H 47.704 22.581 30.747 H 0.0 **** 0.0
9930 H 47.398 24.334 30.688 H 0.0 **** 0.0
9931 C 60.44 9.086 9.887 C 0.0 **** 0.0
9932 H 60.632 10.107 10.216 H 0.0 **** 0.0
9933 H 60.709 8.391 10.683 H 0.0 **** 0.0
9934 H 61.037 8.872 9.0 H 0.0 **** 0.0
9935 H 59.382 8.974 9.649 H 0.0 **** 0.0
9936 C 78.006 38.098 49.708 C 0.0 **** 0.0
9937 H 77.479 37.453 50.412 H 0.0 **** 0.0
9938 H 78.97 38.384 50.13 H 0.0 **** 0.0
9939 H 77.412 38.992 49.52 H 0.0 **** 0.0
9940 H 78.163 37.562 48.772 H 0.0 **** 0.0
9941 C 54.238 90.041 9.66 C 0.0 **** 0.0
9942 H 53.796 89.073 9.425 H 0.0 **** 0.0
9943 H 54.109 90.251 10.722 H 0.0 **** 0.0
9944 H 53.747 90.817 9.074 H 0.0 **** 0.0
9945 H 55.301 90.022 9.421 H 0.0 **** 0.0
9946 C 6.585 79.569 80.305 C 0.0 **** 0.0
9947 H 6.637 79.834 81.361 H 0.0 **** 0.0
9948 H 5.542 79.461 80.008 H 0.0 **** 0.0
9949 H 7.11 78.628 80.14 H 0.0 **** 0.0
9950 H 7.053 80.355 79.711 H 0.0 **** 0.0
9951 C 2.233 33.405 1.042 C 0.0 **** 0.0
9952 H 2.241 33.418 2.132 H 0.0 **** 0.0
9953 H 1.855 32.444 0.694 H 0.0 **** 0.0
9954 H 3.247 33.553 0.671 H 0.0 **** 0.0
9955 H 1.591 34.205 0.674 H 0.0 **** 0.0
9956 C 46.793 48.967 97.066 C 0.0 **** 0.0
9957 H 46.05 48.177 97.182 H 0.0 **** 0.0
9958 H 46.579 49.772 97.77 H 0.0 **** 0.0
9959 H 46.756 49.354 96.048 H 0.0 **** 0.0
9960 H 47.785 48.563 97.266 H 0.0 **** 0.0
9961 C 10.963 97.634 32.265 C 0.0 **** 0.0
9962 H 11.015 97.625 31.177 H 0.0 **** 0.0
9963 H 11.768 98.253 32.662 H 0.0 **** 0.0
9964 H 11.068 96.616 32.642 H 0.0 **** 0.0
9965 H 10.002 98.041 32.58 H 0.0 **** 0.0
9966 C 31.209 35.786 33.78 C 0.0 **** 0.0
9967 H 30.803 35.436 32.831 H 0.0 **** 0.0
9968 H 30.98 36.845 33.903 H 0.0 **** 0.0
9969 H 32.289 35.644 33.787 H 0.0 **** 0.0
9970 H 30.762 35.22 34.597 H 0.0 **** 0.0
9971 C 33.885 21.131 39.22 C 0.0 **** 0.0
9972 H 33.818 21.214 40.304 H 0.0 **** 0.0
9973 H 34.556 21.901 38.838 H 0.0 **** 0.0
9974 H 32.895 21.261 38.783 H 0.0 **** 0.0
9975 H 34.273 20.147 38.954 H 0.0 **** 0.0
9976 C 90.495 73.589 29.854 C 0.0 **** 0.0
9977 H 90.491 73.26 28.814 H 0.0 **** 0.0
9978 H 89.622 73.182 30.366 H 0.0 **** 0.0
9979 H 90.463 74.678 29.891 H 0.0 **** 0.0
9980 H 91.402 73.235 30.343 H 0.0 **** 0.0
9981 C 11.933 26.95 12.199 C 0.0 **** 0.0
9982 H 10.857 26.778 12.164 H 0.0 **** 0.0
9983 H 12.448 26.001 12.352 H 0.0 **** 0.0
9984 H 12.165 27.627 13.022 H 0.0 **** 0.0
9985 H 12.261 27.395 11.26 H 0.0 **** 0.0
9986 C 83.276 27.673 31.173 C 0.0 **** 0.0
9987 H 83.726 28.01 30.239 H 0.0 **** 0.0
9988 H 84.057 27.318 31.845 H 0.0 **** 0.0
9989 H 82.577 26.862 30.967 H 0.0 **** 0.0
9990 H 82.743 28.501 31.639 H 0.0 **** 0.0
9991 C 85.437 41.319 78.826 C 0.0 **** 0.0
9992 H 85.238 40.563 78.066 H 0.0 **** 0.0
9993 H 86.16 42.039 78.441 H 0.0 **** 0.0
9994 H 85.84 40.839 79.718 H 0.0 **** 0.0
9995 H 84.51 41.833 79.077 H 0.0 **** 0.0
9996 C 3.263 46.455 11.869 C 0.0 **** 0.0
9997 H 3.551 46.276 12.905 H 0.0 **** 0.0
9998 H 3.352 45.529 11.301 H 0.0 **** 0.0
9999 H 3.917 47.212 11.436 H 0.0 **** 0.0
10000 H 2.231 46.805 11.834 H 0.0 **** 0.0
10001 C 10.839 41.393 74.121 C 0.0 **** 0.0
10002 H 10.884 41.168 73.055 H 0.0 **** 0.0
10003 H 9.82 41.667 74.391 H 0.0 **** 0.0
10004 H 11.511 42.222 74.346 H 0.0 **** 0.0
10005 H 11.143 40.514 74.69 H 0.0 **** 0.0
10006 C 81.643 9.976 43.955 C 0.0 **** 0.0
10007 H 82.522 10.489 43.564 H 0.0 **** 0.0
10008 H 80.782 10.642 43.904 H 0.0 **** 0.0
10009 H 81.821 9.689 44.991 H 0.0 **** 0.0
10010 H 81.449 9.084 43.359 H 0.0 **** 0.0
10011 C 49.183 8.569 51.313 C 0.0 **** 0.0
10012 H 48.476 7.742 51.384 H 0.0 **** 0.0
10013 H 50.051 8.256 50.733 H 0.0 **** 0.0
10014 H 49.5 8.862 52.314 H 0.0 **** 0.0
10015 H 48.703 9.415 50.821 H 0.0 **** 0.0
10016 C 64.633 79.644 68.327 C 0.0 **** 0.0
10017 H 63.866 79.734 67.557 H 0.0 **** 0.0
10018 H 64.448 80.378 69.111 H 0.0 **** 0.0
10019 H 65.613 79.821 67.885 H 0.0 **** 0.0
10020 H 64.602 78.641 68.753 H 0.0 **** 0.0
10021 C 78.841 24.558 22.985 C 0.0 **** 0.0
10022 H 78.682 23.481 23.038 H 0.0 **** 0.0
10023 H 78.488 24.929 22.022 H 0.0 **** 0.0
10024 H 79.904 24.775 23.091 H 0.0 **** 0.0
10025 H 78.288 25.047 23.787 H 0.0 **** 0.0
10026 C 57.315 36.443 36.487 C 0.0 **** 0.0
10027 H 58.263 36.291 37.004 H 0.0 **** 0.0
10028 H 56.741 35.517 36.503 H 0.0 **** 0.0
10029 H 57.507 36.734 35.455 H 0.0 **** 0.0
10030 H 56.751 37.229 36.988 H 0.0 **** 0.0
10031 C 50.842 98.164 43.654 C 0.0 **** 0.0
10032 H 49.897 97.778 44.036 H 0.0 **** 0.0
10033 H 50.706 98.504 42.627 H 0.0 **** 0.0
10034 H 51.594 97.376 43.68 H 0.0 **** 0.0
10035 H 51.17 99.0 44.273 H 0.0 **** 0.0
10036 C 76.069 82.819 82.671 C 0.0 **** 0.0
10037 H 76.353 83.209 83.648 H 0.0 **** 0.0
10038 H 74.983 82.833 82.577 H 0.0 **** 0.0
10039 H 76.43 81.796 82.569 H 0.0 **** 0.0
10040 H 76.51 83.44 81.891 H 0.0 **** 0.0
10041 C 88.054 73.891 46.948 C 0.0 **** 0.0
10042 H 87.784 73.584 47.959 H 0.0 **** 0.0
10043 H 88.328 73.013 46.363 H 0.0 **** 0.0
10044 H 88.9 74.578 46.992 H 0.0 **** 0.0
10045 H 87.205 74.39 46.481 H 0.0 **** 0.0
10046 C 32.235 36.15 38.856 C 0.0 **** 0.0
10047 H 32.129 36.123 39.94 H 0.0 **** 0.0
10048 H 33.129 36.716 38.593 H 0.0 **** 0.0
10049 H 31.36 36.628 38.417 H 0.0 **** 0.0
10050 H 32.324 35.133 38.474 H 0.0 **** 0.0
10051 C 26.119 26.283 77.806 C 0.0 **** 0.0
10052 H 26.401 26.187 78.855 H 0.0 **** 0.0
10053 H 26.564 25.469 77.234 H 0.0 **** 0.0
10054 H 26.478 27.237 77.42 H 0.0 **** 0.0
10055 H 25.033 26.241 77.716 H 0.0 **** 0.0
10056 C 65.168 16.634 31.62 C 0.0 **** 0.0
10057 H 64.931 16.807 32.67 H 0.0 **** 0.0
10058 H 66.218 16.868 31.441 H 0.0 **** 0.0
10059 H 64.542 17.273 30.997 H 0.0 **** 0.0
10060 H 64.981 15.589 31.372 H 0.0 **** 0.0
10061 C 36.177 26.832 13.732 C 0.0 **** 0.0
10062 H 35.303 27.16 13.17 H 0.0 **** 0.0
10063 H 36.709 27.703 14.118 H 0.0 **** 0.0
10064 H 36.837 26.264 13.078 H 0.0 **** 0.0
10065 H 35.859 26.203 14.563 H 0.0 **** 0.0
10066 C 51.573 61.66 69.863 C 0.0 **** 0.0
10067 H 51.076 61.078 70.64 H 0.0 **** 0.0
10068 H 50.847 62.312 69.378 H 0.0 **** 0.0
10069 H 52.005 60.984 69.125 H 0.0 **** 0.0
10070 H 52.363 62.263 70.31 H 0.0 **** 0.0
10071 C 58.759 18.097 56.037 C 0.0 **** 0.0
10072 H 58.649 17.96 54.961 H 0.0 **** 0.0
10073 H 58.15 17.36 56.561 H 0.0 **** 0.0
10074 H 58.432 19.1 56.311 H 0.0 **** 0.0
10075 H 59.805 17.967 56.314 H 0.0 **** 0.0
10076 C 83.635 5.183 44.74 C 0.0 **** 0.0
10077 H 83.689 6.176 45.184 H 0.0 **** 0.0
10078 H 83.176 5.251 43.753 H 0.0 **** 0.0
10079 H 83.033 4.533 45.376 H 0.0 **** 0.0
10080 H 84.639 4.771 44.647 H 0.0 **** 0.0
10081 C 51.828 20.216 24.704 C 0.0 **** 0.0
10082 H 51.958 20.176 25.786 H 0.0 **** 0.0
10083 H 52.595 19.61 24.223 H 0.0 **** 0.0
10084 H 51.915 21.249 24.367 H 0.0 **** 0.0
10085 H 50.842 19.831 24.443 H 0.0 **** 0.0
10086 C 25.101 88.439 92.519 C 0.0 **** 0.0
10087 H 25.127 88.645 93.589 H 0.0 **** 0.0
10088 H 26.037 88.764 92.063 H 0.0 **** 0.0
10089 H 24.269 88.979 92.066 H 0.0 **** 0.0
10090 H 24.97 87.369 92.358 H 0.0 **** 0.0
10091 C 52.279 62.549 52.564 C 0.0 **** 0.0
10092 H 52.798 62.04 51.752 H 0.0 **** 0.0
10093 H 52.088 61.843 53.372 H 0.0 **** 0.0
10094 H 51.332 62.946 52.196 H 0.0 **** 0.0
10095 H 52.896 63.367 52.934 H 0.0 **** 0.0
10096 C 93.965 83.113 54.394 C 0.0 **** 0.0
10097 H 93.922 82.069 54.08 H 0.0 **** 0.0
10098 H 94.463 83.703 53.625 H 0.0 **** 0.0
10099 H 94.521 83.188 55.328 H 0.0 **** 0.0
10100 H 92.953 83.489 54.542 H 0.0 **** 0.0
10101 C 65.87 54.946 17.72 C 0.0 **** 0.0
10102 H 66.958 55.008 17.759 H 0.0 **** 0.0
10103 H 65.493 54.569 18.671 H 0.0 **** 0.0
10104 H 65.574 54.27 16.917 H 0.0 **** 0.0
10105 H 65.457 55.937 17.532 H 0.0 **** 0.0
10106 C 39.703 33.975 45.26 C 0.0 **** 0.0
10107 H 39.346 34.825 44.679 H 0.0 **** 0.0
10108 H 40.751 33.787 45.022 H 0.0 **** 0.0
10109 H 39.111 33.093 45.015 H 0.0 **** 0.0
10110 H 39.605 34.194 46.323 H 0.0 **** 0.0
10111 C 66.869 50.791 51.867 C 0.0 **** 0.0
10112 H 67.34 51.608 52.414 H 0.0 **** 0.0
10113 H 67.626 50.057 51.59 H 0.0 **** 0.0
10114 H 66.396 51.183 50.966 H 0.0 **** 0.0
10115 H 66.116 50.318 52.497 H 0.0 **** 0.0
10116 C 48.5 94.344 6.211 C 0.0 **** 0.0
10117 H 47.873 93.472 6.032 H 0.0 **** 0.0
10118 H 47.881 95.241 6.224 H 0.0 **** 0.0
10119 H 49.243 94.427 5.418 H 0.0 **** 0.0
10120 H 49.005 94.237 7.172 H 0.0 **** 0.0
10121 C 7.726 98.103 30.973 C 0.0 **** 0.0
10122 H 7.792 97.382 31.788 H 0.0 **** 0.0
10123 H 6.778 98.639 31.039 H 0.0 **** 0.0
10124 H 7.782 97.578 30.019 H 0.0 **** 0.0
10125 H 8.55 98.812 31.047 H 0.0 **** 0.0
10126 C 46.725 25.423 27.335 C 0.0 **** 0.0
10127 H 47.66 25.339 27.887 H 0.0 **** 0.0
10128 H 46.442 24.443 26.95 H 0.0 **** 0.0
10129 H 46.854 26.116 26.504 H 0.0 **** 0.0
10130 H 45.943 25.792 27.998 H 0.0 **** 0.0
10131 C 62.793 24.169 81.187 C 0.0 **** 0.0
10132 H 62.4 23.613 82.039 H 0.0 **** 0.0
10133 H 63.568 23.58 80.697 H 0.0 **** 0.0
10134 H 63.215 25.112 81.533 H 0.0 **** 0.0
10135 H 61.987 24.369 80.482 H 0.0 **** 0.0
10136 C 37.407 81.57 54.396 C 0.0 **** 0.0
10137 H 37.392 81.531 53.306 H 0.0 **** 0.0
10138 H 36.401 81.769 54.765 H 0.0 **** 0.0
10139 H 38.078 82.365 54.721 H 0.0 **** 0.0
10140 H 37.757 80.616 54.788 H 0.0 **** 0.0
10141 C 40.933 9.375 19.672 C 0.0 **** 0.0
10142 H 40.879 8.308 19.456 H 0.0 **** 0.0
10143 H 41.831 9.583 20.253 H 0.0 **** 0.0
10144 H 40.053 9.674 20.242 H 0.0 **** 0.0
10145 H 40.967 9.934 18.737 H 0.0 **** 0.0
10146 C 3.367 58.329 56.608 C 0.0 **** 0.0
10147 H 3.979 57.905 57.405 H 0.0 **** 0.0
10148 H 3.975 58.457 55.713 H 0.0 **** 0.0
10149 H 2.977 59.296 56.926 H 0.0 **** 0.0
10150 H 2.537 57.656 56.391 H 0.0 **** 0.0
10151 C 67.161 23.923 21.272 C 0.0 **** 0.0
10152 H 66.943 24.673 22.033 H 0.0 **** 0.0
10153 H 68.028 24.237 20.691 H 0.0 **** 0.0
10154 H 66.3 23.815 20.612 H 0.0 **** 0.0
10155 H 67.372 22.968 21.754 H 0.0 **** 0.0
10156 C 60.606 90.456 11.325 C 0.0 **** 0.0
10157 H 61.369 90.352 12.096 H 0.0 **** 0.0
10158 H 60.865 89.832 10.47 H 0.0 **** 0.0
10159 H 60.548 91.498 11.01 H 0.0 **** 0.0
10160 H 59.641 90.144 11.725 H 0.0 **** 0.0
10161 C 67.19 7.881 16.117 C 0.0 **** 0.0
10162 H 67.713 6.942 16.295 H 0.0 **** 0.0
10163 H 67.679 8.421 15.305 H 0.0 **** 0.0
10164 H 67.213 8.488 17.022 H 0.0 **** 0.0
10165 H 66.155 7.675 15.844 H 0.0 **** 0.0
10166 C 22.453 3.627 91.563 C 0.0 **** 0.0
10167 H 22.175 3.157 90.619 H 0.0 **** 0.0
10168 H 21.616 3.568 92.258 H 0.0 **** 0.0
10169 H 22.707 4.672 91.387 H 0.0 **** 0.0
10170 H 23.314 3.11 91.986 H 0.0 **** 0.0
10171 C 87.358 2.72 72.687 C 0.0 **** 0.0
10172 H 87.834 2.681 71.707 H 0.0 **** 0.0
10173 H 88.072 3.089 73.423 H 0.0 **** 0.0
10174 H 87.028 1.72 72.97 H 0.0 **** 0.0
10175 H 86.498 3.388 72.647 H 0.0 **** 0.0
10176 C 8.675 90.603 14.263 C 0.0 **** 0.0
10177 H 7.869 90.96 14.905 H 0.0 **** 0.0
10178 H 8.3 89.81 13.616 H 0.0 **** 0.0
10179 H 9.486 90.217 14.88 H 0.0 **** 0.0
10180 H 9.044 91.428 13.652 H 0.0 **** 0.0
10181 C 44.617 26.564 4.313 C 0.0 **** 0.0
10182 H 44.58 26.652 3.227 H 0.0 **** 0.0
10183 H 44.491 27.549 4.762 H 0.0 **** 0.0
10184 H 45.581 26.149 4.61 H 0.0 **** 0.0
10185 H 43.818 25.904 4.651 H 0.0 **** 0.0
10186 C 27.101 43.805 61.156 C 0.0 **** 0.0
10187 H 27.035 43.895 62.24 H 0.0 **** 0.0
10188 H 26.86 42.784 60.861 H 0.0 **** 0.0
10189 H 28.114 44.048 60.832 H 0.0 **** 0.0
10190 H 26.396 44.494 60.691 H 0.0 **** 0.0
10191 C 38.586 84.672 89.026 C 0.0 **** 0.0
10192 H 38.824 85.461 88.312 H 0.0 **** 0.0
10193 H 39.17 83.782 88.791 H 0.0 **** 0.0
10194 H 37.524 84.436 88.966 H 0.0 **** 0.0
10195 H 38.827 85.009 90.034 H 0.0 **** 0.0
10196 C 54.964 29.099 62.252 C 0.0 **** 0.0
10197 H 55.387 29.227 61.255 H 0.0 **** 0.0
10198 H 53.877 29.044 62.18 H 0.0 **** 0.0
10199 H 55.245 29.946 62.877 H 0.0 **** 0.0
10200 H 55.346 28.178 62.693 H 0.0 **** 0.0
10201 C 62.425 3.93 87.881 C 0.0 **** 0.0
10202 H 63.319 3.699 87.303 H 0.0 **** 0.0
10203 H 61.553 3.499 87.389 H 0.0 **** 0.0
10204 H 62.306 5.012 87.95 H 0.0 **** 0.0
10205 H 62.522 3.511 88.883 H 0.0 **** 0.0
10206 C 91.091 33.991 89.642 C 0.0 **** 0.0
10207 H 90.911 34.059 88.569 H 0.0 **** 0.0
10208 H 92.161 33.888 89.825 H 0.0 **** 0.0
10209 H 90.568 33.124 90.044 H 0.0 **** 0.0
10210 H 90.724 34.895 90.129 H 0.0 **** 0.0
10211 C 79.346 35.355 16.889 C 0.0 **** 0.0
10212 H 79.412 35.68 17.927 H 0.0 **** 0.0
10213 H 79.359 34.266 16.848 H 0.0 **** 0.0
10214 H 80.196 35.75 16.331 H 0.0 **** 0.0
10215 H 78.42 35.725 16.45 H 0.0 **** 0.0
10216 C 69.86 7.245 77.618 C 0.0 **** 0.0
10217 H 69.893 7.987 76.82 H 0.0 **** 0.0
10218 H 69.043 7.481 78.3 H 0.0 **** 0.0
10219 H 70.804 7.258 78.164 H 0.0 **** 0.0
10220 H 69.702 6.256 77.189 H 0.0 **** 0.0
10221 C 47.551 82.573 5.938 C 0.0 **** 0.0
10222 H 46.977 81.704 6.26 H 0.0 **** 0.0
10223 H 48.545 82.537 6.385 H 0.0 **** 0.0
10224 H 47.042 83.482 6.257 H 0.0 **** 0.0
10225 H 47.64 82.567 4.852 H 0.0 **** 0.0
10226 C 63.479 91.858 69.09 C 0.0 **** 0.0
10227 H 63.947 92.843 69.099 H 0.0 **** 0.0
10228 H 62.633 91.853 69.778 H 0.0 **** 0.0
10229 H 64.206 91.109 69.402 H 0.0 **** 0.0
10230 H 63.131 91.63 68.083 H 0.0 **** 0.0
10231 C 1.938 69.947 48.491 C 0.0 **** 0.0
10232 H 2.43 70.658 49.154 H 0.0 **** 0.0
10233 H 2.604 69.7 47.664 H 0.0 **** 0.0
10234 H 1.021 70.389 48.099 H 0.0 **** 0.0
10235 H 1.695 69.04 49.045 H 0.0 **** 0.0
10236 C 38.594 5.661 13.419 C 0.0 **** 0.0
10237 H 38.134 6.326 14.15 H 0.0 **** 0.0
10238 H 38.822 4.705 13.892 H 0.0 **** 0.0
10239 H 39.515 6.111 13.048 H 0.0 **** 0.0
10240 H 37.907 5.501 12.589 H 0.0 **** 0.0
10241 C 96.511 76.555 15.391 C 0.0 **** 0.0
10242 H 95.482 76.54 15.749 H 0.0 **** 0.0
10243 H 97.189 76.665 16.237 H 0.0 **** 0.0
10244 H 96.645 77.393 14.707 H 0.0 **** 0.0
10245 H 96.728 75.623 14.869 H 0.0 **** 0.0
10246 C 40.006 42.766 57.905 C 0.0 **** 0.0
10247 H 39.09 43.193 58.312 H 0.0 **** 0.0
10248 H 39.971 41.68 57.994 H 0.0 **** 0.0
10249 H 40.863 43.15 58.459 H 0.0 **** 0.0
10250 H 40.1 43.043 56.855 H 0.0 **** 0.0
10251 C 91.813 59.838 54.723 C 0.0 **** 0.0
10252 H 92.479 60.629 55.07 H 0.0 **** 0.0
10253 H 91.871 58.989 55.406 H 0.0 **** 0.0
10254 H 92.114 59.522 53.724 H 0.0 **** 0.0
10255 H 90.79 60.212 54.693 H 0.0 **** 0.0
10256 C 86.77 18.599 90.019 C 0.0 **** 0.0
10257 H 86.791 18.504 88.933 H 0.0 **** 0.0
10258 H 87.745 18.935 90.372 H 0.0 **** 0.0
10259 H 86.534 17.633 90.463 H 0.0 **** 0.0
10260 H 86.01 19.326 90.304 H 0.0 **** 0.0
10261 C 93.79 39.279 16.889 C 0.0 **** 0.0
10262 H 93.574 38.661 17.76 H 0.0 **** 0.0
10263 H 94.294 38.677 16.132 H 0.0 **** 0.0
10264 H 94.435 40.107 17.183 H 0.0 **** 0.0
10265 H 92.859 39.671 16.481 H 0.0 **** 0.0
10266 C 95.352 21.634 38.711 C 0.0 **** 0.0
10267 H 96.013 22.437 38.386 H 0.0 **** 0.0
10268 H 95.201 20.933 37.89 H 0.0 **** 0.0
10269 H 94.392 22.055 39.012 H 0.0 **** 0.0
10270 H 95.801 21.114 39.557 H 0.0 **** 0.0
10271 C 45.227 56.42 28.086 C 0.0 **** 0.0
10272 H 44.472 57.025 27.583 H 0.0 **** 0.0
10273 H 44.966 56.316 29.14 H 0.0 **** 0.0
10274 H 46.199 56.905 27.998 H 0.0 **** 0.0
10275 H 45.269 55.434 27.624 H 0.0 **** 0.0
10276 C 65.939 17.26 81.35 C 0.0 **** 0.0
10277 H 65.289 16.896 82.145 H 0.0 **** 0.0
10278 H 66.924 16.806 81.449 H 0.0 **** 0.0
10279 H 66.029 18.344 81.423 H 0.0 **** 0.0
10280 H 65.511 16.996 80.382 H 0.0 **** 0.0
10281 C 27.365 13.959 11.755 C 0.0 **** 0.0
10282 H 26.3 13.998 11.527 H 0.0 **** 0.0
10283 H 27.539 14.372 12.749 H 0.0 **** 0.0
10284 H 27.917 14.541 11.018 H 0.0 **** 0.0
10285 H 27.704 12.923 11.728 H 0.0 **** 0.0
10286 C 79.349 35.144 80.552 C 0.0 **** 0.0
10287 H 79.077 35.533 81.533 H 0.0 **** 0.0
10288 H 78.924 34.148 80.426 H 0.0 **** 0.0
10289 H 80.434 35.09 80.471 H 0.0 **** 0.0
10290 H 78.959 35.806 79.779 H 0.0 **** 0.0
10291 C 47.836 40.983 54.441 C 0.0 **** 0.0
10292 H 47.651 41.934 54.941 H 0.0 **** 0.0
10293 H 47.036 40.788 53.726 H 0.0 **** 0.0
10294 H 47.866 40.184 55.181 H 0.0 **** 0.0
10295 H 48.79 41.028 53.916 H 0.0 **** 0.0
10296 C 70.497 74.684 25.655 C 0.0 **** 0.0
10297 H 70.277 75.475 26.372 H 0.0 **** 0.0
10298 H 69.708 73.932 25.691 H 0.0 **** 0.0
10299 H 71.452 74.222 25.907 H 0.0 **** 0.0
10300 H 70.551 75.107 24.652 H 0.0 **** 0.0
10301 C 36.992 85.113 85.858 C 0.0 **** 0.0
10302 H 37.917 84.543 85.775 H 0.0 **** 0.0
10303 H 36.936 85.572 86.846 H 0.0 **** 0.0
10304 H 36.141 84.447 85.717 H 0.0 **** 0.0
10305 H 36.976 85.891 85.095 H 0.0 **** 0.0
10306 C 10.927 91.561 58.132 C 0.0 **** 0.0
10307 H 10.25 92.352 57.809 H 0.0 **** 0.0
10308 H 11.928 91.971 58.263 H 0.0 **** 0.0
10309 H 10.952 90.774 57.379 H 0.0 **** 0.0
10310 H 10.577 91.148 59.078 H 0.0 **** 0.0
10311 C 41.028 51.411 8.091 C 0.0 **** 0.0
10312 H 41.065 52.409 7.655 H 0.0 **** 0.0
10313 H 40.483 50.743 7.424 H 0.0 **** 0.0
10314 H 40.521 51.455 9.055 H 0.0 **** 0.0
10315 H 42.043 51.038 8.231 H 0.0 **** 0.0
10316 C 95.757 21.349 30.757 C 0.0 **** 0.0
10317 H 96.175 22.116 31.409 H 0.0 **** 0.0
10318 H 96.107 20.368 31.08 H 0.0 **** 0.0
10319 H 96.078 21.53 29.731 H 0.0 **** 0.0
10320 H 94.669 21.382 30.809 H 0.0 **** 0.0
10321 C 74.288 56.13 1.021 C 0.0 **** 0.0
10322 H 74.701 55.381 1.697 H 0.0 **** 0.0
10323 H 73.202 56.146 1.117 H 0.0 **** 0.0
10324 H 74.559 55.882 -0.005 H 0.0 **** 0.0
10325 H 74.69 57.11 1.277 H 0.0 **** 0.0
10326 C 79.896 45.456 51.864 C 0.0 **** 0.0
10327 H 79.936 45.446 50.774 H 0.0 **** 0.0
10328 H 80.777 45.965 52.255 H 0.0 **** 0.0
10329 H 79.872 44.431 52.236 H 0.0 **** 0.0
10330 H 78.998 45.981 52.189 H 0.0 **** 0.0
10331 C 68.374 62.955 35.891 C 0.0 **** 0.0
10332 H 67.448 63.235 36.394 H 0.0 **** 0.0
10333 H 68.519 61.877 35.973 H 0.0 **** 0.0
10334 H 69.211 63.472 36.359 H 0.0 **** 0.0
10335 H 68.315 63.235 34.839 H 0.0 **** 0.0
10336 C 72.276 27.308 31.535 C 0.0 **** 0.0
10337 H 72.579 28.032 30.779 H 0.0 **** 0.0
10338 H 72.875 27.449 32.435 H 0.0 **** 0.0
10339 H 72.427 26.299 31.152 H 0.0 **** 0.0
10340 H 71.222 27.451 31.773 H 0.0 **** 0.0
10341 C 44.628 42.442 58.194 C 0.0 **** 0.0
10342 H 45.002 41.48 58.545 H 0.0 **** 0.0
10343 H 43.559 42.364 57.993 H 0.0 **** 0.0
10344 H 45.15 42.723 57.28 H 0.0 **** 0.0
10345 H 44.8 43.199 58.959 H 0.0 **** 0.0
10346 C 27.648 49.128 25.585 C 0.0 **** 0.0
10347 H 28.198 48.216 25.816 H 0.0 **** 0.0
10348 H 26.737 49.163 26.182 H 0.0 **** 0.0
10349 H 27.39 49.139 24.526 H 0.0 **** 0.0
10350 H 28.269 49.994 25.817 H 0.0 **** 0.0
10351 C 82.874 94.52 4.338 C 0.0 **** 0.0
10352 H 82.56 93.686 3.71 H 0.0 **** 0.0
10353 H 82.75 94.251 5.387 H 0.0 **** 0.0
10354 H 82.263 95.394 4.112 H 0.0 **** 0.0
10355 H 83.921 94.748 4.142 H 0.0 **** 0.0
10356 C 68.019 77.68 78.465 C 0.0 **** 0.0
10357 H 67.878 78.586 79.055 H 0.0 **** 0.0
10358 H 68.188 76.834 79.132 H 0.0 **** 0.0
10359 H 68.882 77.805 77.81 H 0.0 **** 0.0
10360 H 67.129 77.497 77.863 H 0.0 **** 0.0
10361 C 61.901 28.267 38.834 C 0.0 **** 0.0
10362 H 62.473 27.6 39.479 H 0.0 **** 0.0
10363 H 62.254 28.172 37.807 H 0.0 **** 0.0
10364 H 62.03 29.296 39.17 H 0.0 **** 0.0
10365 H 60.845 28.0 38.881 H 0.0 **** 0.0
10366 C 24.949 93.938 64.278 C 0.0 **** 0.0
10367 H 24.338 94.819 64.475 H 0.0 **** 0.0
10368 H 24.449 93.054 64.676 H 0.0 **** 0.0
10369 H 25.919 94.055 64.76 H 0.0 **** 0.0
10370 H 25.088 93.825 63.203 H 0.0 **** 0.0
10371 C 11.639 14.127 50.72 C 0.0 **** 0.0
10372 H 11.207 13.802 51.667 H 0.0 **** 0.0
10373 H 10.892 14.684 50.153 H 0.0 **** 0.0
10374 H 11.956 13.256 50.148 H 0.0 **** 0.0
10375 H 12.499 14.768 50.915 H 0.0 **** 0.0
10376 C 91.886 63.971 12.064 C 0.0 **** 0.0
10377 H 92.27 63.125 11.493 H 0.0 **** 0.0
10378 H 92.388 64.014 13.031 H 0.0 **** 0.0
10379 H 90.813 63.849 12.215 H 0.0 **** 0.0
10380 H 92.073 64.894 11.515 H 0.0 **** 0.0
10381 C 94.772 16.62 25.49 C 0.0 **** 0.0
10382 H 95.273 16.681 26.457 H 0.0 **** 0.0
10383 H 95.197 15.798 24.913 H 0.0 **** 0.0
10384 H 94.913 17.555 24.948 H 0.0 **** 0.0
10385 H 93.708 16.445 25.643 H 0.0 **** 0.0
10386 C 92.494 62.826 56.572 C 0.0 **** 0.0
10387 H 92.493 62.819 55.482 H 0.0 **** 0.0
10388 H 91.67 62.213 56.94 H 0.0 **** 0.0
10389 H 92.374 63.849 56.929 H 0.0 **** 0.0
10390 H 93.439 62.422 56.936 H 0.0 **** 0.0
10391 C 38.562 17.053 28.0 C 0.0 **** 0.0
10392 H 38.736 17.194 29.067 H 0.0 **** 0.0
10393 H 39.518 16.936 27.489 H 0.0 **** 0.0
10394 H 38.039 17.922 27.6 H 0.0 **** 0.0
10395 H 37.955 16.161 27.846 H 0.0 **** 0.0
10396 C 55.09 3.604 15.723 C 0.0 **** 0.0
10397 H 54.958 2.944 16.58 H 0.0 **** 0.0
10398 H 55.492 4.56 16.06 H 0.0 **** 0.0
10399 H 54.128 3.765 15.237 H 0.0 **** 0.0
10400 H 55.782 3.147 15.016 H 0.0 **** 0.0
10401 C 45.695 17.567 49.734 C 0.0 **** 0.0
10402 H 45.675 18.628 49.983 H 0.0 **** 0.0
10403 H 46.318 17.037 50.455 H 0.0 **** 0.0
10404 H 46.107 17.437 48.733 H 0.0 **** 0.0
10405 H 44.682 17.168 49.765 H 0.0 **** 0.0
10406 C 40.246 45.396 60.025 C 0.0 **** 0.0
10407 H 39.647 44.513 60.252 H 0.0 **** 0.0
10408 H 39.601 46.274 59.998 H 0.0 **** 0.0
10409 H 40.728 45.268 59.056 H 0.0 **** 0.0
10410 H 41.006 45.526 60.795 H 0.0 **** 0.0
10411 C 86.96 66.877 88.399 C 0.0 **** 0.0
10412 H 86.711 67.445 89.295 H 0.0 **** 0.0
10413 H 86.201 66.112 88.23 H 0.0 **** 0.0
10414 H 87.932 66.401 88.529 H 0.0 **** 0.0
10415 H 86.996 67.549 87.541 H 0.0 **** 0.0
10416 C 70.442 58.725 96.425 C 0.0 **** 0.0
10417 H 71.341 59.17 96.852 H 0.0 **** 0.0
10418 H 69.58 59.346 96.667 H 0.0 **** 0.0
10419 H 70.299 57.727 96.839 H 0.0 **** 0.0
10420 H 70.55 58.658 95.342 H 0.0 **** 0.0
10421 C 6.658 45.331 19.692 C 0.0 **** 0.0
10422 H 6.021 45.251 20.573 H 0.0 **** 0.0
10423 H 6.166 45.952 18.943 H 0.0 **** 0.0
10424 H 6.835 44.337 19.281 H 0.0 **** 0.0
10425 H 7.609 45.784 19.972 H 0.0 **** 0.0
10426 C 48.678 23.916 84.124 C 0.0 **** 0.0
10427 H 49.321 23.264 83.533 H 0.0 **** 0.0
10428 H 48.198 24.643 83.47 H 0.0 **** 0.0
10429 H 49.278 24.437 84.87 H 0.0 **** 0.0
10430 H 47.916 23.318 84.624 H 0.0 **** 0.0
10431 C 98.105 40.55 82.666 C 0.0 **** 0.0
10432 H 98.279 39.495 82.456 H 0.0 **** 0.0
10433 H 97.182 40.66 83.236 H 0.0 **** 0.0
10434 H 98.021 41.098 81.728 H 0.0 **** 0.0
10435 H 98.939 40.948 83.245 H 0.0 **** 0.0
10436 C 94.65 9.601 14.362 C 0.0 **** 0.0
10437 H 94.8 8.654 13.843 H 0.0 **** 0.0
10438 H 94.92 10.424 13.7 H 0.0 **** 0.0
10439 H 95.277 9.629 15.253 H 0.0 **** 0.0
10440 H 93.603 9.695 14.651 H 0.0 **** 0.0
10441 C 82.75 12.367 92.731 C 0.0 **** 0.0
10442 H 83.113 11.584 93.396 H 0.0 **** 0.0
10443 H 81.731 12.136 92.42 H 0.0 **** 0.0
10444 H 83.393 12.425 91.853 H 0.0 **** 0.0
10445 H 82.763 13.323 93.254 H 0.0 **** 0.0
10446 C 64.551 29.238 64.7 C 0.0 **** 0.0
10447 H 64.846 30.03 65.388 H 0.0 **** 0.0
10448 H 63.511 29.38 64.407 H 0.0 **** 0.0
10449 H 64.663 28.271 65.189 H 0.0 **** 0.0
10450 H 65.186 29.273 63.814 H 0.0 **** 0.0
10451 C 20.712 36.977 36.574 C 0.0 **** 0.0
10452 H 20.466 36.161 35.895 H 0.0 **** 0.0
10453 H 21.519 37.573 36.148 H 0.0 **** 0.0
10454 H 21.028 36.568 37.533 H 0.0 **** 0.0
10455 H 19.833 37.606 36.718 H 0.0 **** 0.0
10456 C 65.796 6.226 94.108 C 0.0 **** 0.0
10457 H 66.262 6.683 93.236 H 0.0 **** 0.0
10458 H 64.713 6.332 94.039 H 0.0 **** 0.0
10459 H 66.153 6.721 95.012 H 0.0 **** 0.0
10460 H 66.056 5.168 94.147 H 0.0 **** 0.0
10461 C 71.086 50.638 90.199 C 0.0 **** 0.0
10462 H 70.312 50.041 90.681 H 0.0 **** 0.0
10463 H 71.966 50.679 90.843 H 0.0 **** 0.0
10464 H 70.713 51.647 90.028 H 0.0 **** 0.0
10465 H 71.355 50.182 89.246 H 0.0 **** 0.0
10466 C 76.239 25.434 51.29 C 0.0 **** 0.0
10467 H 77.117 25.086 50.746 H 0.0 **** 0.0
10468 H 75.569 24.594 51.474 H 0.0 **** 0.0
10469 H 75.721 26.19 50.7 H 0.0 **** 0.0
10470 H 76.55 25.866 52.242 H 0.0 **** 0.0
10471 C 37.563 42.364 17.013 C 0.0 **** 0.0
10472 H 37.791 41.617 17.773 H 0.0 **** 0.0
10473 H 37.972 42.044 16.055 H 0.0 **** 0.0
10474 H 38.008 43.318 17.298 H 0.0 **** 0.0
10475 H 36.483 42.478 16.928 H 0.0 **** 0.0
10476 C 34.76 96.515 86.728 C 0.0 **** 0.0
10477 H 35.777 96.207 86.971 H 0.0 **** 0.0
10478 H 34.67 96.652 85.65 H 0.0 **** 0.0
10479 H 34.535 97.454 87.234 H 0.0 **** 0.0
10480 H 34.06 95.747 87.058 H 0.0 **** 0.0
10481 C 35.485 42.532 54.567 C 0.0 **** 0.0
10482 H 35.221 41.703 53.911 H 0.0 **** 0.0
10483 H 34.586 42.91 55.055 H 0.0 **** 0.0
10484 H 35.942 43.328 53.979 H 0.0 **** 0.0
10485 H 36.191 42.187 55.322 H 0.0 **** 0.0
10486 C 4.832 17.544 65.132 C 0.0 **** 0.0
10487 H 5.026 17.857 66.157 H 0.0 **** 0.0
10488 H 5.599 16.836 64.817 H 0.0 **** 0.0
10489 H 4.85 18.415 64.477 H 0.0 **** 0.0
10490 H 3.853 17.067 65.076 H 0.0 **** 0.0
10491 C 49.844 20.049 68.439 C 0.0 **** 0.0
10492 H 49.847 19.135 69.032 H 0.0 **** 0.0
10493 H 50.071 20.9 69.082 H 0.0 **** 0.0
10494 H 48.86 20.187 67.988 H 0.0 **** 0.0
10495 H 50.596 19.975 67.653 H 0.0 **** 0.0
10496 C 11.178 22.305 26.339 C 0.0 **** 0.0
10497 H 10.42 23.084 26.252 H 0.0 **** 0.0
10498 H 10.818 21.522 27.007 H 0.0 **** 0.0
10499 H 12.094 22.735 26.743 H 0.0 **** 0.0
10500 H 11.378 21.881 25.355 H 0.0 **** 0.0
10501 C 11.733 32.94 95.008 C 0.0 **** 0.0
10502 H 11.141 32.746 94.114 H 0.0 **** 0.0
10503 H 11.84 32.017 95.58 H 0.0 **** 0.0
10504 H 11.233 33.691 95.619 H 0.0 **** 0.0
10505 H 12.719 33.305 94.719 H 0.0 **** 0.0
10506 C 52.717 85.24 28.815 C 0.0 **** 0.0
10507 H 52.137 86.009 29.323 H 0.0 **** 0.0
10508 H 53.769 85.525 28.806 H 0.0 **** 0.0
10509 H 52.361 85.134 27.79 H 0.0 **** 0.0
10510 H 52.601 84.291 29.339 H 0.0 **** 0.0
10511 C 4.115 86.583 2.502 C 0.0 **** 0.0
10512 H 4.616 86.688 1.54 H 0.0 **** 0.0
10513 H 4.822 86.206 3.24 H 0.0 **** 0.0
10514 H 3.284 85.885 2.404 H 0.0 **** 0.0
10515 H 3.738 87.555 2.822 H 0.0 **** 0.0
10516 C 31.739 54.612 84.499 C 0.0 **** 0.0
10517 H 31.625 54.459 85.573 H 0.0 **** 0.0
10518 H 31.959 53.659 84.018 H 0.0 **** 0.0
10519 H 32.556 55.309 84.317 H 0.0 **** 0.0
10520 H 30.814 55.021 84.091 H 0.0 **** 0.0
10521 C 64.429 51.429 27.69 C 0.0 **** 0.0
10522 H 63.728 51.085 26.929 H 0.0 **** 0.0
10523 H 63.987 51.294 28.678 H 0.0 **** 0.0
10524 H 64.647 52.485 27.531 H 0.0 **** 0.0
10525 H 65.351 50.853 27.622 H 0.0 **** 0.0
10526 C 63.232 28.476 50.504 C 0.0 **** 0.0
10527 H 64.254 28.11 50.601 H 0.0 **** 0.0
10528 H 63.045 28.759 49.468 H 0.0 **** 0.0
10529 H 63.094 29.343 51.149 H 0.0 **** 0.0
10530 H 62.536 27.69 50.797 H 0.0 **** 0.0
10531 C 61.608 81.65 55.567 C 0.0 **** 0.0
10532 H 61.68 82.129 54.591 H 0.0 **** 0.0
10533 H 62.591 81.285 55.866 H 0.0 **** 0.0
10534 H 60.912 80.813 55.51 H 0.0 **** 0.0
10535 H 61.25 82.372 56.3 H 0.0 **** 0.0
10536 C 59.364 82.886 92.892 C 0.0 **** 0.0
10537 H 59.324 83.96 92.711 H 0.0 **** 0.0
10538 H 60.336 82.502 92.583 H 0.0 **** 0.0
10539 H 58.579 82.392 92.319 H 0.0 **** 0.0
10540 H 59.216 82.691 93.954 H 0.0 **** 0.0
10541 C 9.618 1.244 43.943 C 0.0 **** 0.0
10542 H 10.433 0.523 43.994 H 0.0 **** 0.0
10543 H 10.024 2.255 43.987 H 0.0 **** 0.0
10544 H 8.941 1.088 44.783 H 0.0 **** 0.0
10545 H 9.073 1.111 43.008 H 0.0 **** 0.0
10546 C 44.036 51.629 24.359 C 0.0 **** 0.0
10547 H 43.471 51.596 23.428 H 0.0 **** 0.0
10548 H 44.011 52.641 24.764 H 0.0 **** 0.0
10549 H 45.069 51.339 24.168 H 0.0 **** 0.0
10550 H 43.592 50.94 25.078 H 0.0 **** 0.0
10551 C 93.843 35.902 7.21 C 0.0 **** 0.0
10552 H 92.778 35.923 7.441 H 0.0 **** 0.0
10553 H 94.167 36.896 6.901 H 0.0 **** 0.0
10554 H 94.026 35.192 6.404 H 0.0 **** 0.0
10555 H 94.4 35.597 8.096 H 0.0 **** 0.0
10556 C 97.294 76.766 58.668 C 0.0 **** 0.0
10557 H 97.387 76.736 57.582 H 0.0 **** 0.0
10558 H 96.59 76.0 58.993 H 0.0 **** 0.0
10559 H 96.932 77.747 58.974 H 0.0 **** 0.0
10560 H 98.268 76.58 59.121 H 0.0 **** 0.0
10561 C 59.615 26.535 23.936 C 0.0 **** 0.0
10562 H 59.917 27.239 24.711 H 0.0 **** 0.0
10563 H 59.434 25.557 24.384 H 0.0 **** 0.0
10564 H 60.406 26.453 23.191 H 0.0 **** 0.0
10565 H 58.702 26.89 23.458 H 0.0 **** 0.0
10566 C 97.856 79.618 17.425 C 0.0 **** 0.0
10567 H 98.314 79.966 18.35 H 0.0 **** 0.0
10568 H 98.473 78.834 16.986 H 0.0 **** 0.0
10569 H 97.773 80.45 16.725 H 0.0 **** 0.0
10570 H 96.862 79.222 17.637 H 0.0 **** 0.0
10571 C 49.319 77.522 32.246 C 0.0 **** 0.0
10572 H 49.117 77.223 31.218 H 0.0 **** 0.0
10573 H 50.252 78.084 32.284 H 0.0 **** 0.0
10574 H 49.404 76.634 32.873 H 0.0 **** 0.0
10575 H 48.503 78.147 32.609 H 0.0 **** 0.0
10576 C 39.263 1.203 57.644 C 0.0 **** 0.0
10577 H 38.608 1.865 58.211 H 0.0 **** 0.0
10578 H 39.785 0.534 58.328 H 0.0 **** 0.0
10579 H 39.99 1.799 57.092 H 0.0 **** 0.0
10580 H 38.668 0.616 56.944 H 0.0 **** 0.0
10581 C 19.838 91.274 76.6 C 0.0 **** 0.0
10582 H 20.325 90.727 75.793 H 0.0 **** 0.0
10583 H 19.7 92.314 76.303 H 0.0 **** 0.0
10584 H 20.46 91.231 77.494 H 0.0 **** 0.0
10585 H 18.868 90.824 76.81 H 0.0 **** 0.0
10586 C 18.548 60.155 81.547 C 0.0 **** 0.0
10587 H 18.725 60.145 82.623 H 0.0 **** 0.0
10588 H 19.27 60.816 81.067 H 0.0 **** 0.0
10589 H 17.538 60.514 81.349 H 0.0 **** 0.0
10590 H 18.659 59.146 81.152 H 0.0 **** 0.0
10591 C 88.634 96.579 12.228 C 0.0 **** 0.0
10592 H 87.801 96.429 12.916 H 0.0 **** 0.0
10593 H 88.249 96.834 11.241 H 0.0 **** 0.0
10594 H 89.222 95.663 12.165 H 0.0 **** 0.0
10595 H 89.264 97.391 12.593 H 0.0 **** 0.0
10596 C 69.683 73.941 72.273 C 0.0 **** 0.0
10597 H 69.604 73.767 71.2 H 0.0 **** 0.0
10598 H 69.123 73.173 72.808 H 0.0 **** 0.0
10599 H 69.273 74.923 72.512 H 0.0 **** 0.0
10600 H 70.73 73.902 72.572 H 0.0 **** 0.0
10601 C 61.725 19.339 57.427 C 0.0 **** 0.0
10602 H 61.722 19.475 56.345 H 0.0 **** 0.0
10603 H 62.32 20.128 57.89 H 0.0 **** 0.0
10604 H 62.157 18.368 57.669 H 0.0 **** 0.0
10605 H 60.703 19.387 57.802 H 0.0 **** 0.0
10606 C 66.774 93.398 7.463 C 0.0 **** 0.0
10607 H 66.259 94.101 8.118 H 0.0 **** 0.0
10608 H 67.715 93.096 7.923 H 0.0 **** 0.0
10609 H 66.975 93.876 6.504 H 0.0 **** 0.0
10610 H 66.147 92.52 7.307 H 0.0 **** 0.0
10611 C 45.64 86.93 19.72 C 0.0 **** 0.0
10612 H 45.461 86.404 20.658 H 0.0 **** 0.0
10613 H 46.5 86.489 19.216 H 0.0 **** 0.0
10614 H 45.837 87.982 19.925 H 0.0 **** 0.0
10615 H 44.761 86.843 19.082 H 0.0 **** 0.0
10616 C 3.051 60.589 86.686 C 0.0 **** 0.0
10617 H 3.401 61.522 87.127 H 0.0 **** 0.0
10618 H 2.817 60.751 85.633 H 0.0 **** 0.0
10619 H 2.156 60.253 87.209 H 0.0 **** 0.0
10620 H 3.829 59.831 86.773 H 0.0 **** 0.0
10621 C 56.72 23.146 89.429 C 0.0 **** 0.0
10622 H 56.985 22.838 88.417 H 0.0 **** 0.0
10623 H 55.796 22.65 89.728 H 0.0 **** 0.0
10624 H 56.579 24.226 89.455 H 0.0 **** 0.0
10625 H 57.521 22.867 90.114 H 0.0 **** 0.0
10626 C 26.387 12.751 35.415 C 0.0 **** 0.0
10627 H 26.67 12.777 34.362 H 0.0 **** 0.0
10628 H 27.225 12.382 36.007 H 0.0 **** 0.0
10629 H 25.531 12.089 35.545 H 0.0 **** 0.0
10630 H 26.123 13.756 35.745 H 0.0 **** 0.0
10631 C 41.257 52.287 51.921 C 0.0 **** 0.0
10632 H 40.988 51.785 52.85 H 0.0 **** 0.0
10633 H 41.281 51.56 51.109 H 0.0 **** 0.0
10634 H 42.24 52.746 52.027 H 0.0 **** 0.0
10635 H 40.518 53.057 51.697 H 0.0 **** 0.0
10636 C 91.424 82.17 89.985 C 0.0 **** 0.0
10637 H 91.685 81.137 90.216 H 0.0 **** 0.0
10638 H 90.564 82.185 89.316 H 0.0 **** 0.0
10639 H 92.27 82.658 89.501 H 0.0 **** 0.0
10640 H 91.178 82.697 90.906 H 0.0 **** 0.0
10641 C 72.413 6.156 24.54 C 0.0 **** 0.0
10642 H 72.094 6.388 23.524 H 0.0 **** 0.0
10643 H 71.627 6.437 25.241 H 0.0 **** 0.0
10644 H 73.322 6.711 24.77 H 0.0 **** 0.0
10645 H 72.609 5.087 24.624 H 0.0 **** 0.0
10646 C 14.762 54.22 76.623 C 0.0 **** 0.0
10647 H 13.781 54.693 76.581 H 0.0 **** 0.0
10648 H 15.43 54.824 77.236 H 0.0 **** 0.0
10649 H 15.168 54.137 75.615 H 0.0 **** 0.0
10650 H 14.667 53.226 77.059 H 0.0 **** 0.0
10651 C 21.62 56.112 72.103 C 0.0 **** 0.0
10652 H 22.708 56.058 72.134 H 0.0 **** 0.0
10653 H 21.229 56.142 73.12 H 0.0 **** 0.0
10654 H 21.228 55.236 71.587 H 0.0 **** 0.0
10655 H 21.317 57.014 71.57 H 0.0 **** 0.0
10656 C 49.341 66.847 43.459 C 0.0 **** 0.0
10657 H 49.092 67.566 42.678 H 0.0 **** 0.0
10658 H 49.049 65.847 43.138 H 0.0 **** 0.0
10659 H 48.807 67.105 44.374 H 0.0 **** 0.0
10660 H 50.414 66.87 43.646 H 0.0 **** 0.0
10661 C 4.798 48.228 21.551 C 0.0 **** 0.0
10662 H 4.132 48.518 22.363 H 0.0 **** 0.0
10663 H 4.209 48.0 20.662 H 0.0 **** 0.0
10664 H 5.367 47.346 21.846 H 0.0 **** 0.0
10665 H 5.484 49.047 21.333 H 0.0 **** 0.0
10666 C 77.865 91.582 37.882 C 0.0 **** 0.0
10667 H 77.174 91.384 37.063 H 0.0 **** 0.0
10668 H 78.132 90.642 38.367 H 0.0 **** 0.0
10669 H 77.39 92.243 38.607 H 0.0 **** 0.0
10670 H 78.765 92.057 37.491 H 0.0 **** 0.0
10671 C 61.608 46.366 4.903 C 0.0 **** 0.0
10672 H 61.939 46.542 5.927 H 0.0 **** 0.0
10673 H 61.124 47.263 4.518 H 0.0 **** 0.0
10674 H 60.902 45.536 4.887 H 0.0 **** 0.0
10675 H 62.469 46.121 4.281 H 0.0 **** 0.0
10676 C 66.93 12.172 67.734 C 0.0 **** 0.0
10677 H 65.938 12.615 67.822 H 0.0 **** 0.0
10678 H 66.843 11.169 67.315 H 0.0 **** 0.0
10679 H 67.391 12.115 68.719 H 0.0 **** 0.0
10680 H 67.546 12.787 67.079 H 0.0 **** 0.0
10681 C 85.06 16.96 9.538 C 0.0 **** 0.0
10682 H 84.242 16.667 8.879 H 0.0 **** 0.0
10683 H 84.758 17.825 10.129 H 0.0 **** 0.0
10684 H 85.935 17.216 8.94 H 0.0 **** 0.0
10685 H 85.304 16.132 10.204 H 0.0 **** 0.0
10686 C 42.36 7.662 87.775 C 0.0 **** 0.0
10687 H 42.069 7.336 86.776 H 0.0 **** 0.0
10688 H 41.628 7.309 88.5 H 0.0 **** 0.0
10689 H 42.404 8.751 87.803 H 0.0 **** 0.0
10690 H 43.341 7.253 88.018 H 0.0 **** 0.0
10691 C 71.484 38.686 95.472 C 0.0 **** 0.0
10692 H 71.457 38.712 96.562 H 0.0 **** 0.0
10693 H 71.495 37.65 95.134 H 0.0 **** 0.0
10694 H 72.381 39.194 95.119 H 0.0 **** 0.0
10695 H 70.602 39.189 95.075 H 0.0 **** 0.0
10696 C 4.819 36.652 59.38 C 0.0 **** 0.0
10697 H 4.537 36.989 60.378 H 0.0 **** 0.0
10698 H 4.064 35.962 59.004 H 0.0 **** 0.0
10699 H 5.783 36.145 59.427 H 0.0 **** 0.0
10700 H 4.892 37.511 58.714 H 0.0 **** 0.0
10701 C 85.883 31.044 32.453 C 0.0 **** 0.0
10702 H 86.94 31.182 32.677 H 0.0 **** 0.0
10703 H 85.678 31.389 31.439 H 0.0 **** 0.0
10704 H 85.284 31.618 33.16 H 0.0 **** 0.0
10705 H 85.629 29.987 32.536 H 0.0 **** 0.0
10706 C 9.426 83.623 75.933 C 0.0 **** 0.0
10707 H 9.322 82.607 76.315 H 0.0 **** 0.0
10708 H 8.74 84.283 76.464 H 0.0 **** 0.0
10709 H 9.192 83.635 74.868 H 0.0 **** 0.0
10710 H 10.45 83.964 76.084 H 0.0 **** 0.0
10711 C 65.98 85.43 45.608 C 0.0 **** 0.0
10712 H 64.895 85.516 45.55 H 0.0 **** 0.0
10713 H 66.261 84.376 45.602 H 0.0 **** 0.0
10714 H 66.331 85.894 46.529 H 0.0 **** 0.0
10715 H 66.43 85.932 44.753 H 0.0 **** 0.0
10716 C 53.847 42.963 86.1 C 0.0 **** 0.0
10717 H 53.916 43.306 85.067 H 0.0 **** 0.0
10718 H 52.908 42.429 86.243 H 0.0 **** 0.0
10719 H 53.884 43.822 86.77 H 0.0 **** 0.0
10720 H 54.682 42.296 86.317 H 0.0 **** 0.0
10721 C 96.588 26.619 48.362 C 0.0 **** 0.0
10722 H 96.284 26.355 47.349 H 0.0 **** 0.0
10723 H 96.449 27.689 48.516 H 0.0 **** 0.0
10724 H 97.638 26.364 48.504 H 0.0 **** 0.0
10725 H 95.98 26.066 49.079 H 0.0 **** 0.0
10726 C 76.352 82.713 52.439 C 0.0 **** 0.0
10727 H 77.361 83.117 52.515 H 0.0 **** 0.0
10728 H 76.223 81.916 53.171 H 0.0 **** 0.0
10729 H 76.195 82.315 51.436 H 0.0 **** 0.0
10730 H 75.628 83.505 52.632 H 0.0 **** 0.0
10731 C 63.35 54.966 29.234 C 0.0 **** 0.0
10732 H 64.179 54.302 28.991 H 0.0 **** 0.0
10733 H 63.251 55.724 28.457 H 0.0 **** 0.0
10734 H 63.541 55.449 30.192 H 0.0 **** 0.0
10735 H 62.428 54.387 29.297 H 0.0 **** 0.0
10736 C 61.395 2.515 35.127 C 0.0 **** 0.0
10737 H 61.471 1.664 35.803 H 0.0 **** 0.0
10738 H 61.707 2.214 34.127 H 0.0 **** 0.0
10739 H 62.04 3.319 35.482 H 0.0 **** 0.0
10740 H 60.363 2.864 35.096 H 0.0 **** 0.0
10741 C 80.165 55.233 65.51 C 0.0 **** 0.0
10742 H 80.719 54.404 65.069 H 0.0 **** 0.0
10743 H 79.573 55.725 64.738 H 0.0 **** 0.0
10744 H 80.864 55.948 65.944 H 0.0 **** 0.0
10745 H 79.503 54.853 66.289 H 0.0 **** 0.0
10746 C 73.037 47.022 50.137 C 0.0 **** 0.0
10747 H 73.109 46.157 49.478 H 0.0 **** 0.0
10748 H 74.038 47.388 50.367 H 0.0 **** 0.0
10749 H 72.535 46.733 51.061 H 0.0 **** 0.0
10750 H 72.466 47.808 49.644 H 0.0 **** 0.0
10751 C 88.172 65.326 17.33 C 0.0 **** 0.0
10752 H 87.995 65.177 16.265 H 0.0 **** 0.0
10753 H 87.255 65.123 17.883 H 0.0 **** 0.0
10754 H 88.483 66.356 17.505 H 0.0 **** 0.0
10755 H 88.957 64.648 17.666 H 0.0 **** 0.0
10756 C 87.081 56.787 51.538 C 0.0 **** 0.0
10757 H 86.055 56.988 51.846 H 0.0 **** 0.0
10758 H 87.472 55.943 52.106 H 0.0 **** 0.0
10759 H 87.695 57.667 51.725 H 0.0 **** 0.0
10760 H 87.101 56.549 50.474 H 0.0 **** 0.0
10761 C 51.031 81.608 72.598 C 0.0 **** 0.0
10762 H 50.978 81.27 73.633 H 0.0 **** 0.0
10763 H 50.316 82.416 72.443 H 0.0 **** 0.0
10764 H 50.793 80.779 71.932 H 0.0 **** 0.0
10765 H 52.038 81.967 72.384 H 0.0 **** 0.0
10766 C 15.326 9.249 52.499 C 0.0 **** 0.0
10767 H 14.587 8.783 53.151 H 0.0 **** 0.0
10768 H 16.299 9.244 52.992 H 0.0 **** 0.0
10769 H 15.029 10.277 52.291 H 0.0 **** 0.0
10770 H 15.388 8.692 51.565 H 0.0 **** 0.0
10771 C 13.174 51.546 74.643 C 0.0 **** 0.0
10772 H 13.432 51.592 73.585 H 0.0 **** 0.0
10773 H 12.421 52.302 74.867 H 0.0 **** 0.0
10774 H 14.066 51.733 75.242 H 0.0 **** 0.0
10775 H 12.779 50.558 74.878 H 0.0 **** 0.0
10776 C 78.422 50.039 5.186 C 0.0 **** 0.0
10777 H 78.638 49.147 4.597 H 0.0 **** 0.0
10778 H 79.187 50.793 4.997 H 0.0 **** 0.0
10779 H 78.419 49.782 6.246 H 0.0 **** 0.0
10780 H 77.446 50.432 4.905 H 0.0 **** 0.0
10781 C 66.531 80.168 96.529 C 0.0 **** 0.0
10782 H 66.627 79.981 95.459 H 0.0 **** 0.0
10783 H 66.399 79.221 97.053 H 0.0 **** 0.0
10784 H 65.667 80.808 96.71 H 0.0 **** 0.0
10785 H 67.432 80.662 96.893 H 0.0 **** 0.0
10786 C 73.12 71.393 53.661 C 0.0 **** 0.0
10787 H 73.466 70.374 53.831 H 0.0 **** 0.0
10788 H 73.977 72.065 53.619 H 0.0 **** 0.0
10789 H 72.461 71.694 54.476 H 0.0 **** 0.0
10790 H 72.575 71.439 52.718 H 0.0 **** 0.0
10791 C 24.933 91.027 8.947 C 0.0 **** 0.0
10792 H 25.017 92.113 8.966 H 0.0 **** 0.0
10793 H 24.293 90.698 9.766 H 0.0 **** 0.0
10794 H 25.922 90.584 9.058 H 0.0 **** 0.0
10795 H 24.498 90.713 7.998 H 0.0 **** 0.0
10796 C 2.22 59.538 13.585 C 0.0 **** 0.0
10797 H 1.987 59.192 14.592 H 0.0 **** 0.0
10798 H 3.296 59.475 13.42 H 0.0 **** 0.0
10799 H 1.893 60.571 13.471 H 0.0 **** 0.0
10800 H 1.703 58.911 12.858 H 0.0 **** 0.0
10801 C 72.816 65.599 37.775 C 0.0 **** 0.0
10802 H 72.487 65.588 38.814 H 0.0 **** 0.0
10803 H 72.523 66.541 37.311 H 0.0 **** 0.0
10804 H 72.354 64.77 37.238 H 0.0 **** 0.0
10805 H 73.901 65.497 37.736 H 0.0 **** 0.0
10806 C 82.97 77.442 91.865 C 0.0 **** 0.0
10807 H 83.017 77.287 90.787 H 0.0 **** 0.0
10808 H 83.971 77.361 92.288 H 0.0 **** 0.0
10809 H 82.324 76.686 92.312 H 0.0 **** 0.0
10810 H 82.567 78.433 92.073 H 0.0 **** 0.0
10811 C 51.725 76.906 50.821 C 0.0 **** 0.0
10812 H 50.775 76.613 50.374 H 0.0 **** 0.0
10813 H 51.899 76.32 51.723 H 0.0 **** 0.0
10814 H 51.695 77.966 51.075 H 0.0 **** 0.0
10815 H 52.532 76.727 50.11 H 0.0 **** 0.0
10816 C 79.905 22.231 7.478 C 0.0 **** 0.0
10817 H 79.812 23.24 7.076 H 0.0 **** 0.0
10818 H 80.941 21.9 7.392 H 0.0 **** 0.0
10819 H 79.26 21.556 6.916 H 0.0 **** 0.0
10820 H 79.609 22.229 8.527 H 0.0 **** 0.0
10821 C 10.747 61.896 95.644 C 0.0 **** 0.0
10822 H 10.005 61.472 96.321 H 0.0 **** 0.0
10823 H 11.243 61.092 95.1 H 0.0 **** 0.0
10824 H 11.485 62.456 96.219 H 0.0 **** 0.0
10825 H 10.254 62.563 94.938 H 0.0 **** 0.0
10826 C 26.892 79.31 33.275 C 0.0 **** 0.0
10827 H 26.475 80.146 32.715 H 0.0 **** 0.0
10828 H 27.975 79.417 33.337 H 0.0 **** 0.0
10829 H 26.647 78.376 32.769 H 0.0 **** 0.0
10830 H 26.47 79.3 34.28 H 0.0 **** 0.0
10831 C 13.435 36.18 46.624 C 0.0 **** 0.0
10832 H 13.454 35.539 47.505 H 0.0 **** 0.0
10833 H 13.447 35.564 45.725 H 0.0 **** 0.0
10834 H 14.308 36.832 46.63 H 0.0 **** 0.0
10835 H 12.529 36.787 46.637 H 0.0 **** 0.0
10836 C 22.656 15.089 88.163 C 0.0 **** 0.0
10837 H 21.595 14.846 88.108 H 0.0 **** 0.0
10838 H 23.245 14.197 87.948 H 0.0 **** 0.0
10839 H 22.894 15.449 89.164 H 0.0 **** 0.0
10840 H 22.889 15.864 87.433 H 0.0 **** 0.0
10841 C 61.945 15.332 18.778 C 0.0 **** 0.0
10842 H 61.78 14.342 19.203 H 0.0 **** 0.0
10843 H 61.65 15.331 17.729 H 0.0 **** 0.0
10844 H 63.001 15.591 18.859 H 0.0 **** 0.0
10845 H 61.348 16.064 19.323 H 0.0 **** 0.0
10846 C 44.933 80.215 34.374 C 0.0 **** 0.0
10847 H 44.784 80.063 35.443 H 0.0 **** 0.0
10848 H 45.432 79.343 33.949 H 0.0 **** 0.0
10849 H 45.549 81.1 34.215 H 0.0 **** 0.0
10850 H 43.966 80.353 33.889 H 0.0 **** 0.0
10851 C 84.775 9.59 51.666 C 0.0 **** 0.0
10852 H 84.898 9.112 50.694 H 0.0 **** 0.0
10853 H 83.814 10.104 51.699 H 0.0 **** 0.0
10854 H 85.579 10.31 51.82 H 0.0 **** 0.0
10855 H 84.81 8.833 52.45 H 0.0 **** 0.0
10856 C 38.887 75.664 50.894 C 0.0 **** 0.0
10857 H 39.301 76.325 50.133 H 0.0 **** 0.0
10858 H 37.806 75.793 50.939 H 0.0 **** 0.0
10859 H 39.323 75.908 51.863 H 0.0 **** 0.0
10860 H 39.12 74.629 50.642 H 0.0 **** 0.0
10861 C 94.37 97.444 9.716 C 0.0 **** 0.0
10862 H 94.332 97.775 10.753 H 0.0 **** 0.0
10863 H 95.07 96.613 9.626 H 0.0 **** 0.0
10864 H 94.701 98.268 9.083 H 0.0 **** 0.0
10865 H 93.378 97.119 9.401 H 0.0 **** 0.0
10866 C 78.236 68.074 23.077 C 0.0 **** 0.0
10867 H 77.708 68.333 23.995 H 0.0 **** 0.0
10868 H 77.988 68.797 22.3 H 0.0 **** 0.0
10869 H 77.935 67.077 22.755 H 0.0 **** 0.0
10870 H 79.31 68.089 23.26 H 0.0 **** 0.0
10871 C 63.808 68.464 58.967 C 0.0 **** 0.0
10872 H 63.778 68.946 59.945 H 0.0 **** 0.0
10873 H 64.596 67.71 58.959 H 0.0 **** 0.0
10874 H 64.012 69.212 58.2 H 0.0 **** 0.0
10875 H 62.848 67.99 58.767 H 0.0 **** 0.0
10876 C 40.496 31.774 51.43 C 0.0 **** 0.0
10877 H 39.904 32.681 51.55 H 0.0 **** 0.0
10878 H 39.861 30.902 51.59 H 0.0 **** 0.0
10879 H 41.308 31.772 52.157 H 0.0 **** 0.0
10880 H 40.911 31.742 50.423 H 0.0 **** 0.0
10881 C 71.866 8.59 12.938 C 0.0 **** 0.0
10882 H 72.951 8.538 13.031 H 0.0 **** 0.0
10883 H 71.541 7.949 12.118 H 0.0 **** 0.0
10884 H 71.568 9.619 12.735 H 0.0 **** 0.0
10885 H 71.405 8.255 13.867 H 0.0 **** 0.0
10886 C 30.247 33.396 12.637 C 0.0 **** 0.0
10887 H 30.957 33.5 11.816 H 0.0 **** 0.0
10888 H 29.988 34.383 13.02 H 0.0 **** 0.0
10889 H 30.699 32.804 13.433 H 0.0 **** 0.0
10890 H 29.347 32.897 12.278 H 0.0 **** 0.0
10891 C 76.812 85.586 16.175 C 0.0 **** 0.0
10892 H 76.365 85.6 17.169 H 0.0 **** 0.0
10893 H 77.559 84.794 16.124 H 0.0 **** 0.0
10894 H 77.286 86.547 15.975 H 0.0 **** 0.0
10895 H 76.036 85.402 15.431 H 0.0 **** 0.0
10896 C 22.016 32.629 60.207 C 0.0 **** 0.0
10897 H 21.205 33.351 60.295 H 0.0 **** 0.0
10898 H 22.276 32.502 59.156 H 0.0 **** 0.0
10899 H 21.698 31.673 60.622 H 0.0 **** 0.0
10900 H 22.886 32.991 60.755 H 0.0 **** 0.0
10901 C 35.892 91.621 19.617 C 0.0 **** 0.0
10902 H 36.18 91.682 18.568 H 0.0 **** 0.0
10903 H 35.149 90.834 19.745 H 0.0 **** 0.0
10904 H 35.47 92.575 19.934 H 0.0 **** 0.0
10905 H 36.771 91.394 20.222 H 0.0 **** 0.0
10906 C 42.32 12.565 41.046 C 0.0 **** 0.0
10907 H 42.107 13.634 41.083 H 0.0 **** 0.0
10908 H 41.513 12.017 41.534 H 0.0 **** 0.0
10909 H 43.26 12.364 41.561 H 0.0 **** 0.0
10910 H 42.399 12.247 40.007 H 0.0 **** 0.0
10911 C 88.695 4.839 85.903 C 0.0 **** 0.0
10912 H 88.22 5.809 85.752 H 0.0 **** 0.0
10913 H 89.689 4.984 86.328 H 0.0 **** 0.0
10914 H 88.781 4.324 84.946 H 0.0 **** 0.0
10915 H 88.091 4.241 86.585 H 0.0 **** 0.0
10916 C 28.54 35.022 36.46 C 0.0 **** 0.0
10917 H 27.57 35.273 36.889 H 0.0 **** 0.0
10918 H 29.206 34.671 37.249 H 0.0 **** 0.0
10919 H 28.969 35.906 35.989 H 0.0 **** 0.0
10920 H 28.415 34.237 35.714 H 0.0 **** 0.0
10921 C 91.867 20.331 35.476 C 0.0 **** 0.0
10922 H 91.619 20.746 34.499 H 0.0 **** 0.0
10923 H 92.794 20.778 35.836 H 0.0 **** 0.0
10924 H 91.992 19.252 35.391 H 0.0 **** 0.0
10925 H 91.061 20.549 36.178 H 0.0 **** 0.0
10926 C 33.868 55.108 77.613 C 0.0 **** 0.0
10927 H 33.421 56.101 77.561 H 0.0 **** 0.0
10928 H 34.849 55.175 78.083 H 0.0 **** 0.0
10929 H 33.975 54.705 76.605 H 0.0 **** 0.0
10930 H 33.227 54.451 78.201 H 0.0 **** 0.0
10931 C 51.896 6.701 51.139 C 0.0 **** 0.0
10932 H 51.927 7.016 50.097 H 0.0 **** 0.0
10933 H 50.925 6.255 51.356 H 0.0 **** 0.0
10934 H 52.051 7.565 51.785 H 0.0 **** 0.0
10935 H 52.682 5.967 51.32 H 0.0 **** 0.0
10936 C 40.648 29.353 23.402 C 0.0 **** 0.0
10937 H 40.685 29.368 24.491 H 0.0 **** 0.0
10938 H 41.188 30.215 23.009 H 0.0 **** 0.0
10939 H 39.609 29.394 23.074 H 0.0 **** 0.0
10940 H 41.109 28.436 23.036 H 0.0 **** 0.0
10941 C 35.838 65.24 7.792 C 0.0 **** 0.0
10942 H 35.956 66.299 8.024 H 0.0 **** 0.0
10943 H 36.022 65.079 6.729 H 0.0 **** 0.0
10944 H 34.824 64.925 8.038 H 0.0 **** 0.0
10945 H 36.551 64.659 8.377 H 0.0 **** 0.0
10946 C 75.977 53.78 58.049 C 0.0 **** 0.0
10947 H 75.799 53.685 59.12 H 0.0 **** 0.0
10948 H 76.734 54.545 57.874 H 0.0 **** 0.0
10949 H 75.05 54.065 57.551 H 0.0 **** 0.0
10950 H 76.324 52.826 57.653 H 0.0 **** 0.0
10951 C 57.337 82.961 60.554 C 0.0 **** 0.0
10952 H 56.955 83.759 61.191 H 0.0 **** 0.0
10953 H 57.522 82.072 61.158 H 0.0 **** 0.0
10954 H 58.268 83.284 60.087 H 0.0 **** 0.0
10955 H 56.604 82.731 59.782 H 0.0 **** 0.0
10956 C 52.268 10.791 13.15 C 0.0 **** 0.0
10957 H 52.741 10.533 14.097 H 0.0 **** 0.0
10958 H 53.035 10.955 12.393 H 0.0 **** 0.0
10959 H 51.678 11.699 13.273 H 0.0 **** 0.0
10960 H 51.616 9.975 12.836 H 0.0 **** 0.0
10961 C 54.677 10.917 46.493 C 0.0 **** 0.0
10962 H 54.6 11.978 46.731 H 0.0 **** 0.0
10963 H 55.677 10.561 46.74 H 0.0 **** 0.0
10964 H 54.491 10.769 45.429 H 0.0 **** 0.0
10965 H 53.939 10.361 47.071 H 0.0 **** 0.0
10966 C 75.752 10.731 85.002 C 0.0 **** 0.0
10967 H 75.169 11.396 85.639 H 0.0 **** 0.0
10968 H 76.807 10.995 85.071 H 0.0 **** 0.0
10969 H 75.418 10.831 83.97 H 0.0 **** 0.0
10970 H 75.613 9.701 85.331 H 0.0 **** 0.0
10971 C 93.617 55.297 22.159 C 0.0 **** 0.0
10972 H 94.027 56.297 22.302 H 0.0 **** 0.0
10973 H 93.929 54.913 21.188 H 0.0 **** 0.0
10974 H 92.529 55.341 22.201 H 0.0 **** 0.0
10975 H 93.985 54.638 22.946 H 0.0 **** 0.0
10976 C 43.051 49.692 52.872 C 0.0 **** 0.0
10977 H 43.14 50.314 51.982 H 0.0 **** 0.0
10978 H 43.163 50.313 53.761 H 0.0 **** 0.0
10979 H 43.83 48.929 52.861 H 0.0 **** 0.0
10980 H 42.073 49.212 52.885 H 0.0 **** 0.0
10981 C 75.747 85.671 27.655 C 0.0 **** 0.0
10982 H 75.612 85.559 26.579 H 0.0 **** 0.0
10983 H 75.93 86.72 27.89 H 0.0 **** 0.0
10984 H 76.597 85.072 27.979 H 0.0 **** 0.0
10985 H 74.847 85.335 28.17 H 0.0 **** 0.0
10986 C 52.035 16.433 85.253 C 0.0 **** 0.0
10987 H 52.685 16.332 84.384 H 0.0 **** 0.0
10988 H 51.989 15.482 85.784 H 0.0 **** 0.0
10989 H 51.034 16.716 84.928 H 0.0 **** 0.0
10990 H 52.433 17.201 85.916 H 0.0 **** 0.0
10991 C 3.202 23.058 54.624 C 0.0 **** 0.0
10992 H 3.581 23.158 53.607 H 0.0 **** 0.0
10993 H 3.998 23.286 55.333 H 0.0 **** 0.0
10994 H 2.855 22.037 54.783 H 0.0 **** 0.0
10995 H 2.373 23.75 54.773 H 0.0 **** 0.0
10996 C 68.166 58.226 53.703 C 0.0 **** 0.0
10997 H 67.763 58.358 54.707 H 0.0 **** 0.0
10998 H 67.695 58.939 53.026 H 0.0 **** 0.0
10999 H 67.962 57.211 53.362 H 0.0 **** 0.0
11000 H 69.242 58.395 53.719 H 0.0 **** 0.0
11001 C 59.859 81.249 30.478 C 0.0 **** 0.0
11002 H 59.633 80.835 29.496 H 0.0 **** 0.0
11003 H 59.942 82.334 30.404 H 0.0 **** 0.0
11004 H 60.801 80.836 30.838 H 0.0 **** 0.0
11005 H 59.06 80.992 31.174 H 0.0 **** 0.0
11006 C 7.074 10.283 38.562 C 0.0 **** 0.0
11007 H 6.478 10.483 39.453 H 0.0 **** 0.0
11008 H 6.468 9.743 37.834 H 0.0 **** 0.0
11009 H 7.94 9.68 38.834 H 0.0 **** 0.0
11010 H 7.408 11.226 38.13 H 0.0 **** 0.0
11011 C 18.596 95.934 24.467 C 0.0 **** 0.0
11012 H 19.492 95.997 25.086 H 0.0 **** 0.0
11013 H 18.304 94.89 24.356 H 0.0 **** 0.0
11014 H 18.803 96.361 23.486 H 0.0 **** 0.0
11015 H 17.788 96.49 24.942 H 0.0 **** 0.0
11016 C 95.454 64.046 0.955 C 0.0 **** 0.0
11017 H 94.527 63.875 0.407 H 0.0 **** 0.0
11018 H 96.009 63.11 1.029 H 0.0 **** 0.0
11019 H 95.222 64.412 1.955 H 0.0 **** 0.0
11020 H 96.056 64.785 0.427 H 0.0 **** 0.0
11021 C 68.606 91.924 33.654 C 0.0 **** 0.0
11022 H 69.237 91.183 33.163 H 0.0 **** 0.0
11023 H 68.696 91.818 34.735 H 0.0 **** 0.0
11024 H 67.568 91.769 33.358 H 0.0 **** 0.0
11025 H 68.922 92.924 33.358 H 0.0 **** 0.0
11026 C 66.904 44.439 64.708 C 0.0 **** 0.0
11027 H 67.236 43.414 64.873 H 0.0 **** 0.0
11028 H 66.007 44.629 65.297 H 0.0 **** 0.0
11029 H 66.683 44.584 63.651 H 0.0 **** 0.0
11030 H 67.692 45.128 65.013 H 0.0 **** 0.0
11031 C 9.578 75.594 97.98 C 0.0 **** 0.0
11032 H 9.852 76.188 97.108 H 0.0 **** 0.0
11033 H 9.003 76.21 98.672 H 0.0 **** 0.0
11034 H 10.481 75.236 98.474 H 0.0 **** 0.0
11035 H 8.975 74.743 97.664 H 0.0 **** 0.0
11036 C 24.967 54.671 89.292 C 0.0 **** 0.0
11037 H 26.017 54.907 89.466 H 0.0 **** 0.0
11038 H 24.888 53.937 88.49 H 0.0 **** 0.0
11039 H 24.433 55.578 89.008 H 0.0 **** 0.0
11040 H 24.531 54.263 90.203 H 0.0 **** 0.0
11041 C 18.488 54.36 95.159 C 0.0 **** 0.0
11042 H 19.315 54.907 95.613 H 0.0 **** 0.0
11043 H 18.046 54.963 94.366 H 0.0 **** 0.0
11044 H 17.734 54.147 95.918 H 0.0 **** 0.0
11045 H 18.858 53.423 94.742 H 0.0 **** 0.0
11046 C 7.248 56.31 46.969 C 0.0 **** 0.0
11047 H 7.157 56.467 45.894 H 0.0 **** 0.0
11048 H 8.21 56.689 47.312 H 0.0 **** 0.0
11049 H 7.178 55.244 47.187 H 0.0 **** 0.0
11050 H 6.444 56.838 47.482 H 0.0 **** 0.0
11051 C 26.195 41.018 65.044 C 0.0 **** 0.0
11052 H 25.992 40.973 63.974 H 0.0 **** 0.0
11053 H 26.205 40.007 65.454 H 0.0 **** 0.0
11054 H 25.417 41.602 65.536 H 0.0 **** 0.0
11055 H 27.163 41.488 65.211 H 0.0 **** 0.0
11056 C 15.993 93.906 52.275 C 0.0 **** 0.0
11057 H 16.297 92.875 52.454 H 0.0 **** 0.0
11058 H 16.641 94.58 52.836 H 0.0 **** 0.0
11059 H 14.961 94.042 52.597 H 0.0 **** 0.0
11060 H 16.073 94.128 51.21 H 0.0 **** 0.0
11061 C 9.654 34.454 63.914 C 0.0 **** 0.0
11062 H 10.336 35.204 64.313 H 0.0 **** 0.0
11063 H 9.338 33.786 64.717 H 0.0 **** 0.0
11064 H 10.16 33.877 63.14 H 0.0 **** 0.0
11065 H 8.781 34.947 63.487 H 0.0 **** 0.0
11066 C 47.625 43.98 5.646 C 0.0 **** 0.0
11067 H 48.041 43.363 4.849 H 0.0 **** 0.0
11068 H 46.856 43.418 6.176 H 0.0 **** 0.0
11069 H 47.186 44.88 5.216 H 0.0 **** 0.0
11070 H 48.417 44.258 6.341 H 0.0 **** 0.0
11071 C 17.242 63.438 55.465 C 0.0 **** 0.0
11072 H 17.313 62.535 56.071 H 0.0 **** 0.0
11073 H 17.038 63.166 54.43 H 0.0 **** 0.0
11074 H 18.184 63.985 55.519 H 0.0 **** 0.0
11075 H 16.435 64.066 55.842 H 0.0 **** 0.0
11076 C 28.925 17.57 47.638 C 0.0 **** 0.0
11077 H 29.082 16.562 48.021 H 0.0 **** 0.0
11078 H 29.276 17.625 46.607 H 0.0 **** 0.0
11079 H 29.481 18.281 48.249 H 0.0 **** 0.0
11080 H 27.863 17.811 47.674 H 0.0 **** 0.0
11081 C 61.026 4.34 4.047 C 0.0 **** 0.0
11082 H 60.452 4.596 4.937 H 0.0 **** 0.0
11083 H 61.957 3.854 4.341 H 0.0 **** 0.0
11084 H 61.251 5.247 3.486 H 0.0 **** 0.0
11085 H 60.444 3.662 3.422 H 0.0 **** 0.0
11086 C 17.936 63.151 30.323 C 0.0 **** 0.0
11087 H 17.8 63.396 31.377 H 0.0 **** 0.0
11088 H 16.965 63.125 29.829 H 0.0 **** 0.0
11089 H 18.415 62.176 30.236 H 0.0 **** 0.0
11090 H 18.564 63.908 29.852 H 0.0 **** 0.0
11091 C 73.94 64.567 82.339 C 0.0 **** 0.0
11092 H 74.334 64.72 83.343 H 0.0 **** 0.0
11093 H 72.916 64.199 82.403 H 0.0 **** 0.0
11094 H 74.557 63.838 81.814 H 0.0 **** 0.0
11095 H 73.953 65.512 81.796 H 0.0 **** 0.0
11096 C 70.17 74.891 38.65 C 0.0 **** 0.0
11097 H 69.295 74.59 39.227 H 0.0 **** 0.0
11098 H 71.074 74.567 39.167 H 0.0 **** 0.0
11099 H 70.18 75.975 38.545 H 0.0 **** 0.0
11100 H 70.131 74.43 37.663 H 0.0 **** 0.0
11101 C 14.672 70.233 58.874 C 0.0 **** 0.0
11102 H 15.705 70.354 59.2 H 0.0 **** 0.0
11103 H 14.075 69.846 59.7 H 0.0 **** 0.0
11104 H 14.635 69.534 58.039 H 0.0 **** 0.0
11105 H 14.275 71.198 58.559 H 0.0 **** 0.0
11106 C 67.637 33.639 28.966 C 0.0 **** 0.0
11107 H 67.208 33.184 29.859 H 0.0 **** 0.0
11108 H 66.975 34.425 28.604 H 0.0 **** 0.0
11109 H 67.756 32.879 28.194 H 0.0 **** 0.0
11110 H 68.611 34.065 29.209 H 0.0 **** 0.0
11111 C 46.329 1.925 63.43 C 0.0 **** 0.0
11112 H 46.476 1.709 62.371 H 0.0 **** 0.0
11113 H 45.362 1.535 63.749 H 0.0 **** 0.0
11114 H 46.358 3.003 63.588 H 0.0 **** 0.0
11115 H 47.122 1.452 64.01 H 0.0 **** 0.0
11116 C 33.805 8.581 19.628 C 0.0 **** 0.0
11117 H 33.204 8.645 20.535 H 0.0 **** 0.0
11118 H 33.309 9.126 18.825 H 0.0 **** 0.0
11119 H 33.92 7.536 19.342 H 0.0 **** 0.0
11120 H 34.786 9.018 19.812 H 0.0 **** 0.0
11121 C 86.511 87.211 68.175 C 0.0 **** 0.0
11122 H 87.047 86.845 69.051 H 0.0 **** 0.0
11123 H 86.553 86.463 67.384 H 0.0 **** 0.0
11124 H 86.973 88.135 67.827 H 0.0 **** 0.0
11125 H 85.471 87.402 68.441 H 0.0 **** 0.0
11126 C 86.406 82.293 56.368 C 0.0 **** 0.0
11127 H 86.365 82.385 57.453 H 0.0 **** 0.0
11128 H 86.201 81.261 56.083 H 0.0 **** 0.0
11129 H 87.398 82.578 56.016 H 0.0 **** 0.0
11130 H 85.66 82.949 55.919 H 0.0 **** 0.0
11131 C 83.073 56.022 42.721 C 0.0 **** 0.0
11132 H 83.657 55.462 43.452 H 0.0 **** 0.0
11133 H 83.059 55.478 41.776 H 0.0 **** 0.0
11134 H 83.525 57.002 42.57 H 0.0 **** 0.0
11135 H 82.054 56.143 43.086 H 0.0 **** 0.0
11136 C 0.803 50.554 5.814 C 0.0 **** 0.0
11137 H 1.471 50.78 6.645 H 0.0 **** 0.0
11138 H 1.365 50.065 5.018 H 0.0 **** 0.0
11139 H 0.369 51.48 5.436 H 0.0 **** 0.0
11140 H 0.007 49.893 6.157 H 0.0 **** 0.0
11141 C 41.99 31.325 27.36 C 0.0 **** 0.0
11142 H 42.934 31.61 26.896 H 0.0 **** 0.0
11143 H 41.593 32.17 27.923 H 0.0 **** 0.0
11144 H 42.156 30.484 28.033 H 0.0 **** 0.0
11145 H 41.278 31.036 26.587 H 0.0 **** 0.0
11146 C 4.889 37.715 51.9 C 0.0 **** 0.0
11147 H 4.905 37.773 52.988 H 0.0 **** 0.0
11148 H 5.818 37.266 51.547 H 0.0 **** 0.0
11149 H 4.789 38.718 51.484 H 0.0 **** 0.0
11150 H 4.045 37.103 51.581 H 0.0 **** 0.0
11151 C 76.627 80.395 95.497 C 0.0 **** 0.0
11152 H 76.491 79.52 94.861 H 0.0 **** 0.0
11153 H 77.122 81.183 94.929 H 0.0 **** 0.0
11154 H 77.239 80.127 96.358 H 0.0 **** 0.0
11155 H 75.654 80.75 95.838 H 0.0 **** 0.0
11156 C 32.924 26.596 48.267 C 0.0 **** 0.0
11157 H 33.046 26.609 49.351 H 0.0 **** 0.0
11158 H 32.395 27.496 47.952 H 0.0 **** 0.0
11159 H 32.35 25.717 47.977 H 0.0 **** 0.0
11160 H 33.904 26.565 47.792 H 0.0 **** 0.0
11161 C 84.227 7.662 12.297 C 0.0 **** 0.0
11162 H 84.11 7.643 13.38 H 0.0 **** 0.0
11163 H 83.585 8.436 11.876 H 0.0 **** 0.0
11164 H 83.946 6.693 11.884 H 0.0 **** 0.0
11165 H 85.266 7.876 12.048 H 0.0 **** 0.0
11166 C 23.286 68.498 88.67 C 0.0 **** 0.0
11167 H 22.955 69.524 88.513 H 0.0 **** 0.0
11168 H 23.445 68.327 89.735 H 0.0 **** 0.0
11169 H 24.219 68.331 88.132 H 0.0 **** 0.0
11170 H 22.525 67.81 88.301 H 0.0 **** 0.0
11171 C 5.945 27.902 49.094 C 0.0 **** 0.0
11172 H 5.161 27.216 48.774 H 0.0 **** 0.0
11173 H 6.73 27.934 48.337 H 0.0 **** 0.0
11174 H 6.365 27.557 50.039 H 0.0 **** 0.0
11175 H 5.525 28.899 49.225 H 0.0 **** 0.0
11176 C 95.231 77.055 9.391 C 0.0 **** 0.0
11177 H 95.261 78.137 9.518 H 0.0 **** 0.0
11178 H 96.224 76.641 9.566 H 0.0 **** 0.0
11179 H 94.912 76.818 8.376 H 0.0 **** 0.0
11180 H 94.526 76.626 10.103 H 0.0 **** 0.0
11181 C 34.871 10.883 62.246 C 0.0 **** 0.0
11182 H 35.147 10.0 62.822 H 0.0 **** 0.0
11183 H 33.955 10.681 61.689 H 0.0 **** 0.0
11184 H 35.673 11.128 61.551 H 0.0 **** 0.0
11185 H 34.707 11.722 62.923 H 0.0 **** 0.0
11186 C 28.436 79.955 39.561 C 0.0 **** 0.0
11187 H 28.259 80.552 40.456 H 0.0 **** 0.0
11188 H 27.906 80.399 38.718 H 0.0 **** 0.0
11189 H 28.076 78.94 39.724 H 0.0 **** 0.0
11190 H 29.505 79.932 39.347 H 0.0 **** 0.0
11191 C 43.117 92.834 4.545 C 0.0 **** 0.0
11192 H 43.316 92.614 3.496 H 0.0 **** 0.0
11193 H 43.969 92.522 5.149 H 0.0 **** 0.0
11194 H 42.226 92.295 4.866 H 0.0 **** 0.0
11195 H 42.957 93.906 4.667 H 0.0 **** 0.0
11196 C 22.946 65.953 12.649 C 0.0 **** 0.0
11197 H 23.035 65.924 11.563 H 0.0 **** 0.0
11198 H 23.392 65.054 13.075 H 0.0 **** 0.0
11199 H 21.893 66.003 12.926 H 0.0 **** 0.0
11200 H 23.464 66.833 13.032 H 0.0 **** 0.0
11201 C 56.144 42.562 93.082 C 0.0 **** 0.0
11202 H 56.578 43.543 92.893 H 0.0 **** 0.0
11203 H 56.334 41.909 92.23 H 0.0 **** 0.0
11204 H 55.068 42.663 93.23 H 0.0 **** 0.0
11205 H 56.594 42.133 93.977 H 0.0 **** 0.0
11206 C 49.502 66.401 83.139 C 0.0 **** 0.0
11207 H 48.886 67.284 82.969 H 0.0 **** 0.0
11208 H 49.098 65.831 83.976 H 0.0 **** 0.0
11209 H 50.522 66.709 83.368 H 0.0 **** 0.0
11210 H 49.503 65.78 82.243 H 0.0 **** 0.0
11211 C 52.563 90.671 96.023 C 0.0 **** 0.0
11212 H 53.647 90.74 96.113 H 0.0 **** 0.0
11213 H 52.114 91.625 96.302 H 0.0 **** 0.0
11214 H 52.193 89.888 96.685 H 0.0 **** 0.0
11215 H 52.299 90.432 94.993 H 0.0 **** 0.0
11216 C 46.529 35.0 2.897 C 0.0 **** 0.0
11217 H 45.96 35.748 2.346 H 0.0 **** 0.0
11218 H 46.419 35.176 3.967 H 0.0 **** 0.0
11219 H 47.582 35.07 2.623 H 0.0 **** 0.0
11220 H 46.155 34.006 2.652 H 0.0 **** 0.0
11221 C 51.482 63.653 25.731 C 0.0 **** 0.0
11222 H 51.128 63.355 24.744 H 0.0 **** 0.0
11223 H 52.013 64.602 25.654 H 0.0 **** 0.0
11224 H 52.156 62.889 26.12 H 0.0 **** 0.0
11225 H 50.632 63.765 26.403 H 0.0 **** 0.0
11226 C 39.833 46.965 33.869 C 0.0 **** 0.0
11227 H 40.1 46.62 32.87 H 0.0 **** 0.0
11228 H 39.041 46.333 34.271 H 0.0 **** 0.0
11229 H 39.484 47.996 33.816 H 0.0 **** 0.0
11230 H 40.707 46.909 34.518 H 0.0 **** 0.0
11231 C 28.279 11.22 56.431 C 0.0 **** 0.0
11232 H 28.302 11.515 55.382 H 0.0 **** 0.0
11233 H 27.269 11.345 56.821 H 0.0 **** 0.0
11234 H 28.969 11.845 56.998 H 0.0 **** 0.0
11235 H 28.578 10.176 56.52 H 0.0 **** 0.0
11236 C 44.142 97.589 47.026 C 0.0 **** 0.0
11237 H 43.677 98.26 46.303 H 0.0 **** 0.0
11238 H 43.94 96.555 46.744 H 0.0 **** 0.0
11239 H 43.731 97.782 48.017 H 0.0 **** 0.0
11240 H 45.218 97.759 47.039 H 0.0 **** 0.0
11241 C 49.559 27.595 9.396 C 0.0 **** 0.0
11242 H 49.743 27.595 8.322 H 0.0 **** 0.0
11243 H 49.897 26.65 9.823 H 0.0 **** 0.0
11244 H 48.491 27.716 9.581 H 0.0 **** 0.0
11245 H 50.103 28.418 9.858 H 0.0 **** 0.0
11246 C 14.299 82.639 7.948 C 0.0 **** 0.0
11247 H 14.772 82.02 7.186 H 0.0 **** 0.0
11248 H 14.408 82.162 8.922 H 0.0 **** 0.0
11249 H 13.24 82.756 7.716 H 0.0 **** 0.0
11250 H 14.776 83.619 7.967 H 0.0 **** 0.0
11251 C 51.175 50.395 87.927 C 0.0 **** 0.0
11252 H 51.019 50.944 86.997 H 0.0 **** 0.0
11253 H 50.877 51.019 88.77 H 0.0 **** 0.0
11254 H 52.229 50.133 88.021 H 0.0 **** 0.0
11255 H 50.574 49.486 87.917 H 0.0 **** 0.0
11256 C 8.838 51.87 90.286 C 0.0 **** 0.0
11257 H 7.887 52.396 90.203 H 0.0 **** 0.0
11258 H 9.252 52.025 91.282 H 0.0 **** 0.0
11259 H 9.532 52.255 89.539 H 0.0 **** 0.0
11260 H 8.679 50.804 90.12 H 0.0 **** 0.0
11261 C 20.574 65.584 54.495 C 0.0 **** 0.0
11262 H 20.453 66.585 54.911 H 0.0 **** 0.0
11263 H 19.726 65.354 53.85 H 0.0 **** 0.0
11264 H 20.622 64.858 55.306 H 0.0 **** 0.0
11265 H 21.496 65.542 53.915 H 0.0 **** 0.0
11266 C 16.191 71.565 89.348 C 0.0 **** 0.0
11267 H 15.838 72.551 89.651 H 0.0 **** 0.0
11268 H 15.341 70.887 89.261 H 0.0 **** 0.0
11269 H 16.886 71.183 90.095 H 0.0 **** 0.0
11270 H 16.697 71.64 88.386 H 0.0 **** 0.0
11271 C 84.946 18.289 76.854 C 0.0 **** 0.0
11272 H 84.988 18.203 77.94 H 0.0 **** 0.0
11273 H 85.951 18.191 76.443 H 0.0 **** 0.0
11274 H 84.536 19.262 76.583 H 0.0 **** 0.0
11275 H 84.31 17.501 76.452 H 0.0 **** 0.0
11276 C 42.135 61.216 20.505 C 0.0 **** 0.0
11277 H 41.767 61.681 21.419 H 0.0 **** 0.0
11278 H 42.728 60.337 20.758 H 0.0 **** 0.0
11279 H 42.756 61.928 19.96 H 0.0 **** 0.0
11280 H 41.291 60.919 19.883 H 0.0 **** 0.0
11281 C 9.553 94.342 18.929 C 0.0 **** 0.0
11282 H 9.395 94.528 19.991 H 0.0 **** 0.0
11283 H 9.301 93.307 18.7 H 0.0 **** 0.0
11284 H 10.598 94.526 18.68 H 0.0 **** 0.0
11285 H 8.918 95.009 18.345 H 0.0 **** 0.0
11286 C 18.968 12.357 5.16 C 0.0 **** 0.0
11287 H 19.604 12.433 4.278 H 0.0 **** 0.0
11288 H 18.936 11.321 5.497 H 0.0 **** 0.0
11289 H 17.961 12.69 4.91 H 0.0 **** 0.0
11290 H 19.372 12.986 5.954 H 0.0 **** 0.0
11291 C 92.668 92.203 55.574 C 0.0 **** 0.0
11292 H 92.787 93.255 55.316 H 0.0 **** 0.0
11293 H 93.448 91.619 55.086 H 0.0 **** 0.0
11294 H 91.69 91.856 55.241 H 0.0 **** 0.0
11295 H 92.747 92.084 56.655 H 0.0 **** 0.0
11296 C 51.265 89.228 16.74 C 0.0 **** 0.0
11297 H 50.731 89.775 17.517 H 0.0 **** 0.0
11298 H 50.583 88.533 16.251 H 0.0 **** 0.0
11299 H 52.09 88.674 17.187 H 0.0 **** 0.0
11300 H 51.656 89.932 16.005 H 0.0 **** 0.0
11301 C 46.888 40.829 20.06 C 0.0 **** 0.0
11302 H 47.211 41.242 19.104 H 0.0 **** 0.0
11303 H 46.491 39.826 19.906 H 0.0 **** 0.0
11304 H 46.113 41.466 20.487 H 0.0 **** 0.0
11305 H 47.738 40.784 20.741 H 0.0 **** 0.0
11306 C 86.661 88.755 92.702 C 0.0 **** 0.0
11307 H 86.504 88.391 93.718 H 0.0 **** 0.0
11308 H 86.648 87.913 92.009 H 0.0 **** 0.0
11309 H 87.624 89.261 92.643 H 0.0 **** 0.0
11310 H 85.866 89.453 92.44 H 0.0 **** 0.0
11311 C 10.081 92.492 77.241 C 0.0 **** 0.0
11312 H 9.048 92.431 76.899 H 0.0 **** 0.0
11313 H 10.11 92.962 78.224 H 0.0 **** 0.0
11314 H 10.663 93.085 76.536 H 0.0 **** 0.0
11315 H 10.501 91.488 77.306 H 0.0 **** 0.0
11316 C 17.116 46.349 87.806 C 0.0 **** 0.0
11317 H 16.086 45.991 87.807 H 0.0 **** 0.0
11318 H 17.796 45.498 87.83 H 0.0 **** 0.0
11319 H 17.284 46.974 88.684 H 0.0 **** 0.0
11320 H 17.296 46.934 86.904 H 0.0 **** 0.0
11321 C 72.123 43.033 51.034 C 0.0 **** 0.0
11322 H 71.95 42.955 52.107 H 0.0 **** 0.0
11323 H 71.879 42.083 50.557 H 0.0 **** 0.0
11324 H 73.171 43.272 50.851 H 0.0 **** 0.0
11325 H 71.493 43.82 50.62 H 0.0 **** 0.0
11326 C 59.463 75.301 92.159 C 0.0 **** 0.0
11327 H 58.381 75.331 92.285 H 0.0 **** 0.0
11328 H 59.938 75.147 93.128 H 0.0 **** 0.0
11329 H 59.804 76.245 91.733 H 0.0 **** 0.0
11330 H 59.728 74.483 91.489 H 0.0 **** 0.0
11331 C 5.331 89.138 49.173 C 0.0 **** 0.0
11332 H 5.394 89.396 48.116 H 0.0 **** 0.0
11333 H 5.778 89.934 49.769 H 0.0 **** 0.0
11334 H 5.866 88.206 49.351 H 0.0 **** 0.0
11335 H 4.285 89.016 49.455 H 0.0 **** 0.0
11336 C 29.218 7.642 42.251 C 0.0 **** 0.0
11337 H 29.753 8.392 41.67 H 0.0 **** 0.0
11338 H 29.878 6.797 42.448 H 0.0 **** 0.0
11339 H 28.348 7.3 41.69 H 0.0 **** 0.0
11340 H 28.893 8.078 43.196 H 0.0 **** 0.0
11341 C 48.024 3.271 79.964 C 0.0 **** 0.0
11342 H 46.985 3.079 79.695 H 0.0 **** 0.0
11343 H 48.661 2.503 79.525 H 0.0 **** 0.0
11344 H 48.126 3.253 81.049 H 0.0 **** 0.0
11345 H 48.321 4.25 79.588 H 0.0 **** 0.0
11346 C 63.773 86.887 8.041 C 0.0 **** 0.0
11347 H 64.363 85.972 8.104 H 0.0 **** 0.0
11348 H 62.746 86.677 8.343 H 0.0 **** 0.0
11349 H 63.783 87.256 7.016 H 0.0 **** 0.0
11350 H 64.2 87.64 8.703 H 0.0 **** 0.0
11351 C 70.086 43.976 2.993 C 0.0 **** 0.0
11352 H 70.084 43.975 4.083 H 0.0 **** 0.0
11353 H 69.822 42.984 2.628 H 0.0 **** 0.0
11354 H 71.079 44.244 2.633 H 0.0 **** 0.0
11355 H 69.359 44.703 2.63 H 0.0 **** 0.0
11356 C 14.431 98.099 81.587 C 0.0 **** 0.0
11357 H 14.012 97.789 82.545 H 0.0 **** 0.0
11358 H 13.922 99.0 81.243 H 0.0 **** 0.0
11359 H 14.294 97.302 80.856 H 0.0 **** 0.0
11360 H 15.495 98.304 81.706 H 0.0 **** 0.0
11361 C 8.916 52.186 39.313 C 0.0 **** 0.0
11362 H 8.432 53.06 39.749 H 0.0 **** 0.0
11363 H 9.351 51.579 40.107 H 0.0 **** 0.0
11364 H 9.702 52.509 38.63 H 0.0 **** 0.0
11365 H 8.179 51.598 38.767 H 0.0 **** 0.0
11366 C 72.277 49.951 83.037 C 0.0 **** 0.0
11367 H 72.468 50.737 82.307 H 0.0 **** 0.0
11368 H 73.019 49.161 82.923 H 0.0 **** 0.0
11369 H 71.28 49.539 82.875 H 0.0 **** 0.0
11370 H 72.339 50.366 84.043 H 0.0 **** 0.0
11371 C 59.582 69.622 12.743 C 0.0 **** 0.0
11372 H 59.63 69.087 11.794 H 0.0 **** 0.0
11373 H 60.551 70.075 12.954 H 0.0 **** 0.0
11374 H 59.324 68.925 13.54 H 0.0 **** 0.0
11375 H 58.823 70.402 12.682 H 0.0 **** 0.0
11376 C 6.686 69.912 14.361 C 0.0 **** 0.0
11377 H 6.829 69.481 15.351 H 0.0 **** 0.0
11378 H 5.662 70.274 14.267 H 0.0 **** 0.0
11379 H 6.875 69.152 13.603 H 0.0 **** 0.0
11380 H 7.379 70.743 14.223 H 0.0 **** 0.0
11381 C 28.044 6.39 18.304 C 0.0 **** 0.0
11382 H 27.68 5.447 18.71 H 0.0 **** 0.0
11383 H 28.759 6.19 17.506 H 0.0 **** 0.0
11384 H 28.532 6.961 19.094 H 0.0 **** 0.0
11385 H 27.206 6.963 17.907 H 0.0 **** 0.0
11386 C 47.204 24.953 88.118 C 0.0 **** 0.0
11387 H 46.801 24.473 89.01 H 0.0 **** 0.0
11388 H 48.19 25.361 88.339 H 0.0 **** 0.0
11389 H 46.538 25.758 87.807 H 0.0 **** 0.0
11390 H 47.285 24.218 87.316 H 0.0 **** 0.0
11391 C 72.325 55.932 61.105 C 0.0 **** 0.0
11392 H 72.513 55.941 62.178 H 0.0 **** 0.0
11393 H 72.871 55.107 60.647 H 0.0 **** 0.0
11394 H 72.659 56.875 60.671 H 0.0 **** 0.0
11395 H 71.258 55.806 60.924 H 0.0 **** 0.0
11396 C 43.288 79.367 39.651 C 0.0 **** 0.0
11397 H 43.285 80.27 39.04 H 0.0 **** 0.0
11398 H 42.7 78.593 39.157 H 0.0 **** 0.0
11399 H 42.853 79.587 40.626 H 0.0 **** 0.0
11400 H 44.313 79.02 39.78 H 0.0 **** 0.0
11401 C 19.019 7.074 21.069 C 0.0 **** 0.0
11402 H 18.923 7.629 20.136 H 0.0 **** 0.0
11403 H 18.409 7.548 21.838 H 0.0 **** 0.0
11404 H 20.062 7.07 21.383 H 0.0 **** 0.0
11405 H 18.681 6.049 20.917 H 0.0 **** 0.0
11406 C 35.852 83.338 51.389 C 0.0 **** 0.0
11407 H 36.606 83.932 51.906 H 0.0 **** 0.0
11408 H 36.338 82.523 50.853 H 0.0 **** 0.0
11409 H 35.314 83.969 50.683 H 0.0 **** 0.0
11410 H 35.152 82.927 52.117 H 0.0 **** 0.0
11411 C 8.661 33.357 35.09 C 0.0 **** 0.0
11412 H 8.813 34.288 35.635 H 0.0 **** 0.0
11413 H 7.597 33.219 34.896 H 0.0 **** 0.0
11414 H 9.033 32.523 35.684 H 0.0 **** 0.0
11415 H 9.201 33.398 34.144 H 0.0 **** 0.0
11416 C 35.056 83.822 0.958 C 0.0 **** 0.0
11417 H 34.385 83.687 1.806 H 0.0 **** 0.0
11418 H 35.697 82.945 0.859 H 0.0 **** 0.0
11419 H 35.672 84.706 1.119 H 0.0 **** 0.0
11420 H 34.47 83.948 0.048 H 0.0 **** 0.0
11421 C 87.136 42.103 74.825 C 0.0 **** 0.0
11422 H 87.908 41.603 75.409 H 0.0 **** 0.0
11423 H 87.081 41.654 73.834 H 0.0 **** 0.0
11424 H 87.38 43.162 74.732 H 0.0 **** 0.0
11425 H 86.174 41.996 75.327 H 0.0 **** 0.0
11426 C 14.14 73.919 22.019 C 0.0 **** 0.0
11427 H 14.259 73.945 20.936 H 0.0 **** 0.0
11428 H 13.82 72.923 22.325 H 0.0 **** 0.0
11429 H 13.391 74.651 22.32 H 0.0 **** 0.0
11430 H 15.092 74.157 22.495 H 0.0 **** 0.0
11431 C 18.57 14.948 40.779 C 0.0 **** 0.0
11432 H 18.729 14.01 40.247 H 0.0 **** 0.0
11433 H 18.298 15.728 40.067 H 0.0 **** 0.0
11434 H 19.486 15.231 41.297 H 0.0 **** 0.0
11435 H 17.766 14.822 41.504 H 0.0 **** 0.0
11436 C 61.323 82.651 95.705 C 0.0 **** 0.0
11437 H 62.188 83.001 96.267 H 0.0 **** 0.0
11438 H 61.008 83.425 95.005 H 0.0 **** 0.0
11439 H 60.507 82.431 96.394 H 0.0 **** 0.0
11440 H 61.588 81.749 95.155 H 0.0 **** 0.0
11441 C 77.638 96.182 12.733 C 0.0 **** 0.0
11442 H 77.873 96.731 11.821 H 0.0 **** 0.0
11443 H 77.819 96.82 13.598 H 0.0 **** 0.0
11444 H 78.27 95.296 12.796 H 0.0 **** 0.0
11445 H 76.591 95.88 12.715 H 0.0 **** 0.0
11446 C 87.752 46.988 16.956 C 0.0 **** 0.0
11447 H 87.816 47.074 15.872 H 0.0 **** 0.0
11448 H 88.367 47.76 17.419 H 0.0 **** 0.0
11449 H 88.109 46.005 17.264 H 0.0 **** 0.0
11450 H 86.716 47.113 17.27 H 0.0 **** 0.0
11451 C 71.5 61.707 89.612 C 0.0 **** 0.0
11452 H 72.232 60.979 89.261 H 0.0 **** 0.0
11453 H 70.956 62.114 88.759 H 0.0 **** 0.0
11454 H 72.014 62.514 90.134 H 0.0 **** 0.0
11455 H 70.801 61.221 90.292 H 0.0 **** 0.0
11456 C 43.963 94.734 82.778 C 0.0 **** 0.0
11457 H 43.398 95.424 82.151 H 0.0 **** 0.0
11458 H 43.537 93.734 82.693 H 0.0 **** 0.0
11459 H 43.914 95.063 83.816 H 0.0 **** 0.0
11460 H 45.003 94.716 82.451 H 0.0 **** 0.0
11461 C 61.291 17.804 30.29 C 0.0 **** 0.0
11462 H 62.343 17.771 30.572 H 0.0 **** 0.0
11463 H 60.888 18.794 30.505 H 0.0 **** 0.0
11464 H 60.738 17.056 30.858 H 0.0 **** 0.0
11465 H 61.194 17.596 29.224 H 0.0 **** 0.0
11466 C 91.999 96.689 2.483 C 0.0 **** 0.0
11467 H 91.969 96.997 3.528 H 0.0 **** 0.0
11468 H 91.652 95.659 2.397 H 0.0 **** 0.0
11469 H 93.022 96.76 2.112 H 0.0 **** 0.0
11470 H 91.353 97.341 1.894 H 0.0 **** 0.0
11471 C 24.963 15.01 81.052 C 0.0 **** 0.0
11472 H 25.891 15.218 81.585 H 0.0 **** 0.0
11473 H 24.799 15.777 80.295 H 0.0 **** 0.0
11474 H 24.132 15.011 81.758 H 0.0 **** 0.0
11475 H 25.03 14.034 80.572 H 0.0 **** 0.0
11476 C 30.248 28.369 66.112 C 0.0 **** 0.0
11477 H 31.116 28.267 66.763 H 0.0 **** 0.0
11478 H 30.427 27.828 65.182 H 0.0 **** 0.0
11479 H 30.079 29.423 65.894 H 0.0 **** 0.0
11480 H 29.371 27.955 66.61 H 0.0 **** 0.0
11481 C 98.038 48.861 2.37 C 0.0 **** 0.0
11482 H 98.21 49.239 1.362 H 0.0 **** 0.0
11483 H 97.243 49.438 2.843 H 0.0 **** 0.0
11484 H 98.953 48.956 2.954 H 0.0 **** 0.0
11485 H 97.746 47.812 2.32 H 0.0 **** 0.0
11486 C 14.295 30.638 65.443 C 0.0 **** 0.0
11487 H 14.385 30.345 64.398 H 0.0 **** 0.0
11488 H 14.129 31.714 65.506 H 0.0 **** 0.0
11489 H 15.212 30.38 65.973 H 0.0 **** 0.0
11490 H 13.453 30.114 65.896 H 0.0 **** 0.0
11491 C 18.121 60.602 8.212 C 0.0 **** 0.0
11492 H 17.892 59.899 9.013 H 0.0 **** 0.0
11493 H 17.198 60.893 7.709 H 0.0 **** 0.0
11494 H 18.792 60.129 7.494 H 0.0 **** 0.0
11495 H 18.602 61.486 8.631 H 0.0 **** 0.0
11496 C 67.507 15.301 6.402 C 0.0 **** 0.0
11497 H 66.719 15.033 5.698 H 0.0 **** 0.0
11498 H 68.134 16.079 5.966 H 0.0 **** 0.0
11499 H 68.115 14.422 6.617 H 0.0 **** 0.0
11500 H 67.059 15.668 7.325 H 0.0 **** 0.0
11501 C 96.864 90.654 46.166 C 0.0 **** 0.0
11502 H 96.738 90.66 47.249 H 0.0 **** 0.0
11503 H 97.188 89.664 45.844 H 0.0 **** 0.0
11504 H 97.615 91.392 45.884 H 0.0 **** 0.0
11505 H 95.916 90.899 45.689 H 0.0 **** 0.0
11506 C 81.894 92.648 82.38 C 0.0 **** 0.0
11507 H 81.876 92.652 83.47 H 0.0 **** 0.0
11508 H 82.237 91.676 82.026 H 0.0 **** 0.0
11509 H 82.573 93.424 82.025 H 0.0 **** 0.0
11510 H 80.891 92.841 82.0 H 0.0 **** 0.0
11511 C 94.433 75.678 84.063 C 0.0 **** 0.0
11512 H 94.65 75.349 83.047 H 0.0 **** 0.0
11513 H 94.799 74.935 84.771 H 0.0 **** 0.0
11514 H 93.357 75.798 84.184 H 0.0 **** 0.0
11515 H 94.928 76.632 84.248 H 0.0 **** 0.0
11516 C 87.314 75.614 88.302 C 0.0 **** 0.0
11517 H 86.321 75.476 87.872 H 0.0 **** 0.0
11518 H 88.068 75.452 87.532 H 0.0 **** 0.0
11519 H 87.461 74.899 89.112 H 0.0 **** 0.0
11520 H 87.403 76.628 88.692 H 0.0 **** 0.0
11521 C 34.37 78.254 42.825 C 0.0 **** 0.0
11522 H 34.821 78.335 43.814 H 0.0 **** 0.0
11523 H 33.29 78.146 42.927 H 0.0 **** 0.0
11524 H 34.775 77.383 42.31 H 0.0 **** 0.0
11525 H 34.593 79.153 42.25 H 0.0 **** 0.0
11526 C 42.98 4.089 37.284 C 0.0 **** 0.0
11527 H 42.727 3.702 38.272 H 0.0 **** 0.0
11528 H 43.856 4.733 37.36 H 0.0 **** 0.0
11529 H 42.139 4.663 36.894 H 0.0 **** 0.0
11530 H 43.196 3.258 36.613 H 0.0 **** 0.0
11531 C 52.877 72.492 97.461 C 0.0 **** 0.0
11532 H 52.699 72.224 96.419 H 0.0 **** 0.0
11533 H 53.164 71.601 98.02 H 0.0 **** 0.0
11534 H 51.966 72.912 97.888 H 0.0 **** 0.0
11535 H 53.678 73.229 97.514 H 0.0 **** 0.0
11536 C 93.482 71.544 52.623 C 0.0 **** 0.0
11537 H 93.006 72.49 52.365 H 0.0 **** 0.0
11538 H 92.724 70.763 52.694 H 0.0 **** 0.0
11539 H 93.992 71.643 53.581 H 0.0 **** 0.0
11540 H 94.206 71.279 51.852 H 0.0 **** 0.0
11541 C 15.171 32.339 7.096 C 0.0 **** 0.0
11542 H 15.527 32.069 6.101 H 0.0 **** 0.0
11543 H 16.021 32.612 7.723 H 0.0 **** 0.0
11544 H 14.65 31.49 7.538 H 0.0 **** 0.0
11545 H 14.489 33.185 7.02 H 0.0 **** 0.0
11546 C 15.189 8.029 73.512 C 0.0 **** 0.0
11547 H 14.552 7.27 73.967 H 0.0 **** 0.0
11548 H 16.217 7.666 73.477 H 0.0 **** 0.0
11549 H 15.146 8.942 74.106 H 0.0 **** 0.0
11550 H 14.842 8.236 72.5 H 0.0 **** 0.0
11551 C 36.085 11.138 38.579 C 0.0 **** 0.0
11552 H 35.081 10.77 38.792 H 0.0 **** 0.0
11553 H 36.559 11.457 39.508 H 0.0 **** 0.0
11554 H 36.025 11.983 37.893 H 0.0 **** 0.0
11555 H 36.675 10.342 38.125 H 0.0 **** 0.0
11556 C 53.191 20.326 53.436 C 0.0 **** 0.0
11557 H 53.729 20.548 54.357 H 0.0 **** 0.0
11558 H 53.88 19.904 52.705 H 0.0 **** 0.0
11559 H 52.757 21.244 53.039 H 0.0 **** 0.0
11560 H 52.396 19.609 53.644 H 0.0 **** 0.0
11561 C 47.088 14.865 35.864 C 0.0 **** 0.0
11562 H 47.315 15.186 36.881 H 0.0 **** 0.0
11563 H 47.533 13.885 35.685 H 0.0 **** 0.0
11564 H 47.497 15.585 35.156 H 0.0 **** 0.0
11565 H 46.007 14.802 35.736 H 0.0 **** 0.0
11566 C 4.548 67.773 5.417 C 0.0 **** 0.0
11567 H 3.516 67.563 5.698 H 0.0 **** 0.0
11568 H 5.101 68.109 6.294 H 0.0 **** 0.0
11569 H 4.566 68.551 4.655 H 0.0 **** 0.0
11570 H 5.008 66.867 5.023 H 0.0 **** 0.0
11571 C 38.604 36.811 4.728 C 0.0 **** 0.0
11572 H 38.459 37.767 4.224 H 0.0 **** 0.0
11573 H 39.175 36.143 4.082 H 0.0 **** 0.0
11574 H 37.633 36.365 4.945 H 0.0 **** 0.0
11575 H 39.148 36.969 5.659 H 0.0 **** 0.0
11576 C 67.775 87.567 53.817 C 0.0 **** 0.0
11577 H 67.131 88.443 53.904 H 0.0 **** 0.0
11578 H 67.314 86.843 53.146 H 0.0 **** 0.0
11579 H 67.911 87.118 54.801 H 0.0 **** 0.0
11580 H 68.744 87.868 53.418 H 0.0 **** 0.0
11581 C 77.415 50.729 65.993 C 0.0 **** 0.0
11582 H 78.35 50.168 65.999 H 0.0 **** 0.0
11583 H 76.581 50.046 66.16 H 0.0 **** 0.0
11584 H 77.293 51.222 65.028 H 0.0 **** 0.0
11585 H 77.436 51.479 66.784 H 0.0 **** 0.0
11586 C 57.534 31.86 66.358 C 0.0 **** 0.0
11587 H 57.482 32.873 65.96 H 0.0 **** 0.0
11588 H 58.463 31.39 66.035 H 0.0 **** 0.0
11589 H 56.686 31.282 65.991 H 0.0 **** 0.0
11590 H 57.505 31.896 67.447 H 0.0 **** 0.0
11591 C 17.292 54.32 31.578 C 0.0 **** 0.0
11592 H 16.788 53.893 32.445 H 0.0 **** 0.0
11593 H 16.55 54.603 30.83 H 0.0 **** 0.0
11594 H 17.972 53.582 31.154 H 0.0 **** 0.0
11595 H 17.855 55.201 31.883 H 0.0 **** 0.0
11596 C 74.666 16.155 25.133 C 0.0 **** 0.0
11597 H 75.308 16.993 24.862 H 0.0 **** 0.0
11598 H 73.763 16.177 24.523 H 0.0 **** 0.0
11599 H 74.396 16.23 26.186 H 0.0 **** 0.0
11600 H 75.199 15.22 24.961 H 0.0 **** 0.0
11601 C 9.129 42.109 70.983 C 0.0 **** 0.0
11602 H 8.167 41.614 70.853 H 0.0 **** 0.0
11603 H 9.326 42.752 70.125 H 0.0 **** 0.0
11604 H 9.916 41.358 71.063 H 0.0 **** 0.0
11605 H 9.108 42.711 71.891 H 0.0 **** 0.0
11606 C 31.464 19.963 94.134 C 0.0 **** 0.0
11607 H 32.035 20.505 94.888 H 0.0 **** 0.0
11608 H 30.829 20.661 93.588 H 0.0 **** 0.0
11609 H 30.844 19.209 94.619 H 0.0 **** 0.0
11610 H 32.15 19.478 93.44 H 0.0 **** 0.0
11611 C 14.686 4.127 34.943 C 0.0 **** 0.0
11612 H 13.675 4.289 34.571 H 0.0 **** 0.0
11613 H 15.056 3.166 34.584 H 0.0 **** 0.0
11614 H 14.676 4.128 36.033 H 0.0 **** 0.0
11615 H 15.337 4.924 34.585 H 0.0 **** 0.0
11616 C 80.221 19.389 19.836 C 0.0 **** 0.0
11617 H 80.696 18.602 19.251 H 0.0 **** 0.0
11618 H 79.512 18.944 20.535 H 0.0 **** 0.0
11619 H 79.694 20.071 19.168 H 0.0 **** 0.0
11620 H 80.981 19.94 20.391 H 0.0 **** 0.0
11621 C 13.209 41.352 22.809 C 0.0 **** 0.0
11622 H 13.532 40.329 22.617 H 0.0 **** 0.0
11623 H 14.013 42.042 22.552 H 0.0 **** 0.0
11624 H 12.959 41.461 23.864 H 0.0 **** 0.0
11625 H 12.331 41.575 22.203 H 0.0 **** 0.0
11626 C 26.978 62.247 89.209 C 0.0 **** 0.0
11627 H 27.378 63.098 89.762 H 0.0 **** 0.0
11628 H 26.366 61.638 89.874 H 0.0 **** 0.0
11629 H 27.802 61.648 88.821 H 0.0 **** 0.0
11630 H 26.369 62.607 88.38 H 0.0 **** 0.0
11631 C 93.456 80.012 0.818 C 0.0 **** 0.0
11632 H 92.526 79.656 0.374 H 0.0 **** 0.0
11633 H 93.425 79.859 1.897 H 0.0 **** 0.0
11634 H 93.576 81.075 0.605 H 0.0 **** 0.0
11635 H 94.295 79.46 0.396 H 0.0 **** 0.0
11636 C 13.149 23.529 72.749 C 0.0 **** 0.0
11637 H 13.435 23.393 73.792 H 0.0 **** 0.0
11638 H 12.113 23.864 72.697 H 0.0 **** 0.0
11639 H 13.252 22.583 72.217 H 0.0 **** 0.0
11640 H 13.796 24.276 72.29 H 0.0 **** 0.0
11641 C 9.378 52.102 86.756 C 0.0 **** 0.0
11642 H 8.448 52.216 87.313 H 0.0 **** 0.0
11643 H 9.311 51.224 86.114 H 0.0 **** 0.0
11644 H 10.206 51.979 87.455 H 0.0 **** 0.0
11645 H 9.546 52.988 86.145 H 0.0 **** 0.0
11646 C 93.745 86.259 72.901 C 0.0 **** 0.0
11647 H 93.367 85.254 73.086 H 0.0 **** 0.0
11648 H 92.908 86.941 72.756 H 0.0 **** 0.0
11649 H 94.368 86.252 72.006 H 0.0 **** 0.0
11650 H 94.339 86.587 73.754 H 0.0 **** 0.0
11651 C 32.267 42.714 35.82 C 0.0 **** 0.0
11652 H 31.71 43.397 36.461 H 0.0 **** 0.0
11653 H 32.773 41.97 36.436 H 0.0 **** 0.0
11654 H 33.006 43.274 35.247 H 0.0 **** 0.0
11655 H 31.58 42.215 35.137 H 0.0 **** 0.0
11656 C 13.349 13.231 91.732 C 0.0 **** 0.0
11657 H 12.954 14.006 91.075 H 0.0 **** 0.0
11658 H 14.437 13.221 91.667 H 0.0 **** 0.0
11659 H 12.957 12.261 91.426 H 0.0 **** 0.0
11660 H 13.047 13.438 92.759 H 0.0 **** 0.0
11661 C 66.472 25.145 53.964 C 0.0 **** 0.0
11662 H 65.537 24.589 53.886 H 0.0 **** 0.0
11663 H 66.517 25.892 53.172 H 0.0 **** 0.0
11664 H 67.312 24.458 53.865 H 0.0 **** 0.0
11665 H 66.519 25.64 54.934 H 0.0 **** 0.0
11666 C 5.24 67.977 79.421 C 0.0 **** 0.0
11667 H 4.688 68.655 78.77 H 0.0 **** 0.0
11668 H 5.317 66.999 78.945 H 0.0 **** 0.0
11669 H 4.715 67.879 80.371 H 0.0 **** 0.0
11670 H 6.239 68.375 79.597 H 0.0 **** 0.0
11671 C 61.4 61.594 93.196 C 0.0 **** 0.0
11672 H 60.669 61.138 93.863 H 0.0 **** 0.0
11673 H 62.128 60.842 92.887 H 0.0 **** 0.0
11674 H 61.912 62.403 93.717 H 0.0 **** 0.0
11675 H 60.892 61.991 92.317 H 0.0 **** 0.0
11676 C 59.38 97.893 43.752 C 0.0 **** 0.0
11677 H 59.417 98.439 42.809 H 0.0 **** 0.0
11678 H 60.081 98.339 44.458 H 0.0 **** 0.0
11679 H 59.651 96.851 43.58 H 0.0 **** 0.0
11680 H 58.371 97.943 44.161 H 0.0 **** 0.0
11681 C 10.535 6.947 93.226 C 0.0 **** 0.0
11682 H 10.197 6.134 92.582 H 0.0 **** 0.0
11683 H 9.904 7.822 93.067 H 0.0 **** 0.0
11684 H 11.569 7.195 92.985 H 0.0 **** 0.0
11685 H 10.47 6.635 94.268 H 0.0 **** 0.0
11686 C 55.811 74.768 74.521 C 0.0 **** 0.0
11687 H 55.012 74.099 74.203 H 0.0 **** 0.0
11688 H 55.595 75.143 75.522 H 0.0 **** 0.0
11689 H 55.881 75.606 73.826 H 0.0 **** 0.0
11690 H 56.756 74.225 74.531 H 0.0 **** 0.0
11691 C 12.181 53.906 25.594 C 0.0 **** 0.0
11692 H 11.805 53.403 26.486 H 0.0 **** 0.0
11693 H 13.257 54.052 25.687 H 0.0 **** 0.0
11694 H 11.689 54.873 25.489 H 0.0 **** 0.0
11695 H 11.971 53.294 24.717 H 0.0 **** 0.0
11696 C 13.21 33.76 4.409 C 0.0 **** 0.0
11697 H 12.677 33.368 5.276 H 0.0 **** 0.0
11698 H 14.247 33.423 4.438 H 0.0 **** 0.0
11699 H 13.18 34.849 4.426 H 0.0 **** 0.0
11700 H 12.736 33.397 3.497 H 0.0 **** 0.0
11701 C 96.281 34.433 76.354 C 0.0 **** 0.0
11702 H 96.526 34.539 75.298 H 0.0 **** 0.0
11703 H 97.067 34.89 76.957 H 0.0 **** 0.0
11704 H 96.201 33.375 76.604 H 0.0 **** 0.0
11705 H 95.332 34.928 76.559 H 0.0 **** 0.0
11706 C 37.272 73.663 56.514 C 0.0 **** 0.0
11707 H 36.956 72.891 55.813 H 0.0 **** 0.0
11708 H 36.903 73.422 57.511 H 0.0 **** 0.0
11709 H 36.868 74.626 56.2 H 0.0 **** 0.0
11710 H 38.36 73.714 56.531 H 0.0 **** 0.0
11711 C 66.214 80.379 25.447 C 0.0 **** 0.0
11712 H 66.075 79.892 26.413 H 0.0 **** 0.0
11713 H 66.895 81.223 25.561 H 0.0 **** 0.0
11714 H 65.252 80.734 25.078 H 0.0 **** 0.0
11715 H 66.635 79.665 24.738 H 0.0 **** 0.0
11716 C 28.991 16.387 70.342 C 0.0 **** 0.0
11717 H 28.436 16.52 71.271 H 0.0 **** 0.0
11718 H 29.905 15.827 70.543 H 0.0 **** 0.0
11719 H 29.245 17.363 69.929 H 0.0 **** 0.0
11720 H 28.377 15.838 69.628 H 0.0 **** 0.0
11721 C 80.457 29.897 29.77 C 0.0 **** 0.0
11722 H 81.21 30.605 29.424 H 0.0 **** 0.0
11723 H 79.615 29.894 29.077 H 0.0 **** 0.0
11724 H 80.111 30.189 30.761 H 0.0 **** 0.0
11725 H 80.893 28.898 29.817 H 0.0 **** 0.0
11726 C 20.434 88.996 71.689 C 0.0 **** 0.0
11727 H 21.032 89.573 72.395 H 0.0 **** 0.0
11728 H 20.987 88.104 71.39 H 0.0 **** 0.0
11729 H 20.222 89.604 70.81 H 0.0 **** 0.0
11730 H 19.498 88.701 72.162 H 0.0 **** 0.0
11731 C 56.325 81.151 24.57 C 0.0 **** 0.0
11732 H 56.537 80.419 23.791 H 0.0 **** 0.0
11733 H 57.261 81.493 25.011 H 0.0 **** 0.0
11734 H 55.706 80.692 25.341 H 0.0 **** 0.0
11735 H 55.795 82.0 24.137 H 0.0 **** 0.0
11736 C 50.673 66.785 48.207 C 0.0 **** 0.0
11737 H 50.427 65.752 47.959 H 0.0 **** 0.0
11738 H 50.591 67.402 47.312 H 0.0 **** 0.0
11739 H 51.692 66.833 48.591 H 0.0 **** 0.0
11740 H 49.981 67.15 48.966 H 0.0 **** 0.0
11741 C 65.908 96.688 51.475 C 0.0 **** 0.0
11742 H 65.061 96.74 50.791 H 0.0 **** 0.0
11743 H 66.416 97.653 51.498 H 0.0 **** 0.0
11744 H 66.603 95.92 51.134 H 0.0 **** 0.0
11745 H 65.553 96.44 52.475 H 0.0 **** 0.0
11746 C 89.755 83.229 7.232 C 0.0 **** 0.0
11747 H 90.222 83.659 8.118 H 0.0 **** 0.0
11748 H 90.227 82.275 7.0 H 0.0 **** 0.0
11749 H 89.878 83.91 6.39 H 0.0 **** 0.0
11750 H 88.693 83.073 7.42 H 0.0 **** 0.0
11751 C 86.514 52.062 34.171 C 0.0 **** 0.0
11752 H 85.691 52.496 34.739 H 0.0 **** 0.0
11753 H 87.461 52.42 34.574 H 0.0 **** 0.0
11754 H 86.428 52.358 33.125 H 0.0 **** 0.0
11755 H 86.474 50.976 34.246 H 0.0 **** 0.0
11756 C 5.769 41.288 77.085 C 0.0 **** 0.0
11757 H 6.831 41.108 77.252 H 0.0 **** 0.0
11758 H 5.285 41.516 78.035 H 0.0 **** 0.0
11759 H 5.314 40.398 76.65 H 0.0 **** 0.0
11760 H 5.646 42.129 76.403 H 0.0 **** 0.0
11761 C 6.467 5.279 74.293 C 0.0 **** 0.0
11762 H 6.977 6.206 74.031 H 0.0 **** 0.0
11763 H 5.735 5.475 75.076 H 0.0 **** 0.0
11764 H 7.197 4.552 74.65 H 0.0 **** 0.0
11765 H 5.96 4.883 73.413 H 0.0 **** 0.0
11766 C 89.549 43.246 97.08 C 0.0 **** 0.0
11767 H 89.08 42.892 97.998 H 0.0 **** 0.0
11768 H 89.142 42.699 96.23 H 0.0 **** 0.0
11769 H 90.625 43.083 97.136 H 0.0 **** 0.0
11770 H 89.349 44.311 96.957 H 0.0 **** 0.0
11771 C 18.794 1.189 52.344 C 0.0 **** 0.0
11772 H 18.612 1.837 53.201 H 0.0 **** 0.0
11773 H 19.448 1.698 51.636 H 0.0 **** 0.0
11774 H 17.847 0.953 51.86 H 0.0 **** 0.0
11775 H 19.27 0.268 52.681 H 0.0 **** 0.0
11776 C 28.133 9.843 90.462 C 0.0 **** 0.0
11777 H 27.262 9.794 91.115 H 0.0 **** 0.0
11778 H 28.403 10.886 90.295 H 0.0 **** 0.0
11779 H 27.9 9.37 89.508 H 0.0 **** 0.0
11780 H 28.968 9.322 90.931 H 0.0 **** 0.0
11781 C 55.659 40.339 42.576 C 0.0 **** 0.0
11782 H 56.227 39.418 42.452 H 0.0 **** 0.0
11783 H 56.332 41.145 42.87 H 0.0 **** 0.0
11784 H 54.902 40.198 43.347 H 0.0 **** 0.0
11785 H 55.174 40.596 41.634 H 0.0 **** 0.0
11786 C 32.787 45.461 19.68 C 0.0 **** 0.0
11787 H 32.669 46.01 20.614 H 0.0 **** 0.0
11788 H 32.528 46.11 18.843 H 0.0 **** 0.0
11789 H 32.13 44.592 19.683 H 0.0 **** 0.0
11790 H 33.822 45.134 19.579 H 0.0 **** 0.0
11791 C 42.593 48.523 43.467 C 0.0 **** 0.0
11792 H 43.303 48.019 44.123 H 0.0 **** 0.0
11793 H 42.7 48.138 42.453 H 0.0 **** 0.0
11794 H 42.791 49.595 43.473 H 0.0 **** 0.0
11795 H 41.578 48.34 43.821 H 0.0 **** 0.0
11796 C 40.086 34.097 76.744 C 0.0 **** 0.0
11797 H 39.931 33.847 75.694 H 0.0 **** 0.0
11798 H 41.064 33.736 77.063 H 0.0 **** 0.0
11799 H 39.309 33.626 77.347 H 0.0 **** 0.0
11800 H 40.038 35.179 76.87 H 0.0 **** 0.0
11801 C 81.153 98.459 36.716 C 0.0 **** 0.0
11802 H 81.833 98.899 37.445 H 0.0 **** 0.0
11803 H 80.177 98.938 36.796 H 0.0 **** 0.0
11804 H 81.051 97.392 36.912 H 0.0 **** 0.0
11805 H 81.55 98.608 35.712 H 0.0 **** 0.0
11806 C 94.682 83.211 17.643 C 0.0 **** 0.0
11807 H 93.916 83.724 17.062 H 0.0 **** 0.0
11808 H 94.768 82.18 17.301 H 0.0 **** 0.0
11809 H 94.407 83.224 18.698 H 0.0 **** 0.0
11810 H 95.638 83.719 17.511 H 0.0 **** 0.0
11811 C 43.956 24.803 85.728 C 0.0 **** 0.0
11812 H 45.04 24.793 85.838 H 0.0 **** 0.0
11813 H 43.647 23.967 85.099 H 0.0 **** 0.0
11814 H 43.647 25.74 85.265 H 0.0 **** 0.0
11815 H 43.49 24.711 86.709 H 0.0 **** 0.0
11816 C 87.679 4.163 48.315 C 0.0 **** 0.0
11817 H 87.983 4.247 49.358 H 0.0 **** 0.0
11818 H 88.387 4.703 47.685 H 0.0 **** 0.0
11819 H 86.684 4.589 48.191 H 0.0 **** 0.0
11820 H 87.663 3.112 48.025 H 0.0 **** 0.0
11821 C 53.922 77.004 23.639 C 0.0 **** 0.0
11822 H 53.293 77.656 24.245 H 0.0 **** 0.0
11823 H 53.305 76.481 22.908 H 0.0 **** 0.0
11824 H 54.419 76.278 24.282 H 0.0 **** 0.0
11825 H 54.671 77.603 23.12 H 0.0 **** 0.0
11826 C 50.235 70.836 49.213 C 0.0 **** 0.0
11827 H 50.938 70.663 48.398 H 0.0 **** 0.0
11828 H 50.139 71.907 49.389 H 0.0 **** 0.0
11829 H 50.601 70.35 50.117 H 0.0 **** 0.0
11830 H 49.262 70.422 48.947 H 0.0 **** 0.0
11831 C 67.618 62.434 92.722 C 0.0 **** 0.0
11832 H 67.25 63.309 92.186 H 0.0 **** 0.0
11833 H 67.97 61.691 92.005 H 0.0 **** 0.0
11834 H 66.812 62.009 93.32 H 0.0 **** 0.0
11835 H 68.44 62.727 93.375 H 0.0 **** 0.0
11836 C 87.182 46.391 86.858 C 0.0 **** 0.0
11837 H 87.521 45.415 86.51 H 0.0 **** 0.0
11838 H 87.219 47.104 86.034 H 0.0 **** 0.0
11839 H 87.829 46.734 87.665 H 0.0 **** 0.0
11840 H 86.158 46.309 87.223 H 0.0 **** 0.0
11841 C 60.866 74.755 39.218 C 0.0 **** 0.0
11842 H 60.882 74.511 40.281 H 0.0 **** 0.0
11843 H 59.833 74.843 38.882 H 0.0 **** 0.0
11844 H 61.365 73.965 38.657 H 0.0 **** 0.0
11845 H 61.383 75.7 39.055 H 0.0 **** 0.0
11846 C 16.855 26.444 84.388 C 0.0 **** 0.0
11847 H 16.799 25.474 84.882 H 0.0 **** 0.0
11848 H 16.183 27.144 84.886 H 0.0 **** 0.0
11849 H 16.561 26.337 83.344 H 0.0 **** 0.0
11850 H 17.877 26.82 84.442 H 0.0 **** 0.0
11851 C 61.04 78.81 97.744 C 0.0 **** 0.0
11852 H 61.709 79.254 98.481 H 0.0 **** 0.0
11853 H 61.444 78.971 96.744 H 0.0 **** 0.0
11854 H 60.057 79.276 97.818 H 0.0 **** 0.0
11855 H 60.95 77.741 97.932 H 0.0 **** 0.0
11856 C 97.464 45.396 38.067 C 0.0 **** 0.0
11857 H 98.064 44.486 38.056 H 0.0 **** 0.0
11858 H 97.679 45.983 37.174 H 0.0 **** 0.0
11859 H 97.708 45.981 38.954 H 0.0 **** 0.0
11860 H 96.407 45.133 38.084 H 0.0 **** 0.0
11861 C 79.348 47.174 26.442 C 0.0 **** 0.0
11862 H 78.889 48.1 26.097 H 0.0 **** 0.0
11863 H 79.903 47.364 27.361 H 0.0 **** 0.0
11864 H 80.028 46.798 25.678 H 0.0 **** 0.0
11865 H 78.571 46.434 26.634 H 0.0 **** 0.0
11866 C 58.319 40.71 36.539 C 0.0 **** 0.0
11867 H 58.644 41.528 37.183 H 0.0 **** 0.0
11868 H 57.519 41.058 35.886 H 0.0 **** 0.0
11869 H 57.954 39.887 37.154 H 0.0 **** 0.0
11870 H 59.16 40.368 35.936 H 0.0 **** 0.0
11871 C 82.853 55.139 18.515 C 0.0 **** 0.0
11872 H 83.928 54.957 18.55 H 0.0 **** 0.0
11873 H 82.399 54.813 19.451 H 0.0 **** 0.0
11874 H 82.418 54.581 17.686 H 0.0 **** 0.0
11875 H 82.67 56.204 18.373 H 0.0 **** 0.0
11876 C 16.642 52.276 37.416 C 0.0 **** 0.0
11877 H 15.663 52.743 37.52 H 0.0 **** 0.0
11878 H 17.273 52.892 36.775 H 0.0 **** 0.0
11879 H 16.527 51.287 36.97 H 0.0 **** 0.0
11880 H 17.105 52.18 38.398 H 0.0 **** 0.0
11881 C 12.677 64.208 37.773 C 0.0 **** 0.0
11882 H 12.057 64.21 38.669 H 0.0 **** 0.0
11883 H 13.467 64.952 37.876 H 0.0 **** 0.0
11884 H 12.063 64.449 36.905 H 0.0 **** 0.0
11885 H 13.122 63.222 37.641 H 0.0 **** 0.0
11886 C 4.037 87.854 70.151 C 0.0 **** 0.0
11887 H 4.05 87.831 71.241 H 0.0 **** 0.0
11888 H 3.65 86.908 69.772 H 0.0 **** 0.0
11889 H 5.05 88.008 69.779 H 0.0 **** 0.0
11890 H 3.398 88.67 69.814 H 0.0 **** 0.0
11891 C 72.697 68.481 47.517 C 0.0 **** 0.0
11892 H 73.605 68.458 46.914 H 0.0 **** 0.0
11893 H 72.366 67.462 47.714 H 0.0 **** 0.0
11894 H 71.917 69.02 46.979 H 0.0 **** 0.0
11895 H 72.901 68.986 48.461 H 0.0 **** 0.0
11896 C 17.738 56.524 70.154 C 0.0 **** 0.0
11897 H 18.152 55.869 69.388 H 0.0 **** 0.0
11898 H 16.772 56.906 69.822 H 0.0 **** 0.0
11899 H 18.419 57.358 70.327 H 0.0 **** 0.0
11900 H 17.608 55.964 71.08 H 0.0 **** 0.0
11901 C 16.815 25.55 7.243 C 0.0 **** 0.0
11902 H 16.525 24.718 6.6 H 0.0 **** 0.0
11903 H 17.052 25.173 8.238 H 0.0 **** 0.0
11904 H 15.991 26.261 7.309 H 0.0 **** 0.0
11905 H 17.69 26.046 6.823 H 0.0 **** 0.0
11906 C 24.511 36.697 81.817 C 0.0 **** 0.0
11907 H 24.496 36.887 82.89 H 0.0 **** 0.0
11908 H 23.765 37.323 81.327 H 0.0 **** 0.0
11909 H 24.284 35.648 81.631 H 0.0 **** 0.0
11910 H 25.499 36.931 81.421 H 0.0 **** 0.0
11911 C 21.887 78.356 89.306 C 0.0 **** 0.0
11912 H 21.783 77.386 89.792 H 0.0 **** 0.0
11913 H 21.046 78.993 89.583 H 0.0 **** 0.0
11914 H 21.899 78.22 88.225 H 0.0 **** 0.0
11915 H 22.818 78.824 89.624 H 0.0 **** 0.0
11916 C 58.068 11.78 55.257 C 0.0 **** 0.0
11917 H 57.523 11.213 54.502 H 0.0 **** 0.0
11918 H 58.984 11.251 55.518 H 0.0 **** 0.0
11919 H 57.447 11.892 56.146 H 0.0 **** 0.0
11920 H 58.317 12.765 54.862 H 0.0 **** 0.0
11921 C 13.301 51.66 10.691 C 0.0 **** 0.0
11922 H 12.354 51.362 10.241 H 0.0 **** 0.0
11923 H 13.216 51.618 11.777 H 0.0 **** 0.0
11924 H 13.543 52.678 10.385 H 0.0 **** 0.0
11925 H 14.089 50.983 10.361 H 0.0 **** 0.0
11926 C 85.097 60.297 30.414 C 0.0 **** 0.0
11927 H 84.051 59.99 30.437 H 0.0 **** 0.0
11928 H 85.59 59.843 29.554 H 0.0 **** 0.0
11929 H 85.591 59.974 31.33 H 0.0 **** 0.0
11930 H 85.154 61.383 30.333 H 0.0 **** 0.0
11931 C 41.778 12.541 93.865 C 0.0 **** 0.0
11932 H 42.718 12.814 94.345 H 0.0 **** 0.0
11933 H 41.034 13.314 94.06 H 0.0 **** 0.0
11934 H 41.429 11.59 94.265 H 0.0 **** 0.0
11935 H 41.933 12.449 92.79 H 0.0 **** 0.0
11936 C 80.728 40.587 3.6 C 0.0 **** 0.0
11937 H 81.784 40.414 3.392 H 0.0 **** 0.0
11938 H 80.531 40.401 4.656 H 0.0 **** 0.0
11939 H 80.123 39.914 2.993 H 0.0 **** 0.0
11940 H 80.475 41.62 3.359 H 0.0 **** 0.0
11941 C 14.434 74.287 53.024 C 0.0 **** 0.0
11942 H 14.368 74.287 54.112 H 0.0 **** 0.0
11943 H 15.195 73.573 52.707 H 0.0 **** 0.0
11944 H 14.704 75.284 52.677 H 0.0 **** 0.0
11945 H 13.471 74.003 52.602 H 0.0 **** 0.0
11946 C 69.118 6.73 12.853 C 0.0 **** 0.0
11947 H 70.068 6.199 12.917 H 0.0 **** 0.0
11948 H 68.676 6.802 13.847 H 0.0 **** 0.0
11949 H 68.443 6.187 12.192 H 0.0 **** 0.0
11950 H 69.288 7.731 12.456 H 0.0 **** 0.0
11951 C 77.938 90.456 27.033 C 0.0 **** 0.0
11952 H 78.317 90.226 26.037 H 0.0 **** 0.0
11953 H 78.765 90.769 27.672 H 0.0 **** 0.0
11954 H 77.467 89.569 27.456 H 0.0 **** 0.0
11955 H 77.206 91.26 26.966 H 0.0 **** 0.0
11956 C 96.958 24.669 33.665 C 0.0 **** 0.0
11957 H 97.263 24.259 34.628 H 0.0 **** 0.0
11958 H 95.88 24.827 33.662 H 0.0 **** 0.0
11959 H 97.225 23.97 32.872 H 0.0 **** 0.0
11960 H 97.466 25.619 33.498 H 0.0 **** 0.0
11961 C 16.619 49.695 62.671 C 0.0 **** 0.0
11962 H 15.895 50.232 62.058 H 0.0 **** 0.0
11963 H 17.626 49.905 62.31 H 0.0 **** 0.0
11964 H 16.426 48.624 62.606 H 0.0 **** 0.0
11965 H 16.529 50.019 63.707 H 0.0 **** 0.0
11966 C 2.537 7.49 1.509 C 0.0 **** 0.0
11967 H 2.989 8.161 0.778 H 0.0 **** 0.0
11968 H 3.316 6.896 1.986 H 0.0 **** 0.0
11969 H 1.831 6.829 1.007 H 0.0 **** 0.0
11970 H 2.012 8.076 2.264 H 0.0 **** 0.0
11971 C 95.932 92.048 62.082 C 0.0 **** 0.0
11972 H 94.975 92.516 62.314 H 0.0 **** 0.0
11973 H 95.934 91.723 61.042 H 0.0 **** 0.0
11974 H 96.081 91.186 62.733 H 0.0 **** 0.0
11975 H 96.735 92.767 62.241 H 0.0 **** 0.0
11976 C 24.093 82.316 93.526 C 0.0 **** 0.0
11977 H 24.052 82.368 92.438 H 0.0 **** 0.0
11978 H 25.08 81.971 93.836 H 0.0 **** 0.0
11979 H 23.336 81.619 93.885 H 0.0 **** 0.0
11980 H 23.905 83.305 93.945 H 0.0 **** 0.0
11981 C 26.89 23.88 74.829 C 0.0 **** 0.0
11982 H 26.104 24.563 75.153 H 0.0 **** 0.0
11983 H 26.974 23.059 75.541 H 0.0 **** 0.0
11984 H 27.838 24.416 74.779 H 0.0 **** 0.0
11985 H 26.645 23.484 73.844 H 0.0 **** 0.0
11986 C 84.991 76.557 48.726 C 0.0 **** 0.0
11987 H 84.401 76.157 47.901 H 0.0 **** 0.0
11988 H 85.118 75.788 49.488 H 0.0 **** 0.0
11989 H 84.477 77.415 49.158 H 0.0 **** 0.0
11990 H 85.969 76.867 48.356 H 0.0 **** 0.0
11991 C 7.61 18.525 63.325 C 0.0 **** 0.0
11992 H 7.744 18.597 64.404 H 0.0 **** 0.0
11993 H 6.633 18.093 63.109 H 0.0 **** 0.0
11994 H 8.39 17.891 62.903 H 0.0 **** 0.0
11995 H 7.673 19.521 62.885 H 0.0 **** 0.0
11996 C 68.867 90.53 53.799 C 0.0 **** 0.0
11997 H 67.869 90.718 53.402 H 0.0 **** 0.0
11998 H 68.786 89.988 54.741 H 0.0 **** 0.0
11999 H 69.376 91.479 53.967 H 0.0 **** 0.0
12000 H 69.436 89.935 53.084 H 0.0 **** 0.0
12001 C 93.21 71.701 85.526 C 0.0 **** 0.0
12002 H 93.983 71.192 84.951 H 0.0 **** 0.0
12003 H 93.659 72.169 86.403 H 0.0 **** 0.0
12004 H 92.458 70.979 85.843 H 0.0 **** 0.0
12005 H 92.741 72.466 84.906 H 0.0 **** 0.0
12006 C 89.757 9.185 76.7 C 0.0 **** 0.0
12007 H 89.734 9.04 77.78 H 0.0 **** 0.0
12008 H 89.193 8.387 76.216 H 0.0 **** 0.0
12009 H 90.789 9.163 76.352 H 0.0 **** 0.0
12010 H 89.31 10.148 76.453 H 0.0 **** 0.0
12011 C 31.329 77.644 40.975 C 0.0 **** 0.0
12012 H 31.298 78.393 41.766 H 0.0 **** 0.0
12013 H 30.455 77.756 40.334 H 0.0 **** 0.0
12014 H 31.329 76.648 41.419 H 0.0 **** 0.0
12015 H 32.234 77.778 40.383 H 0.0 **** 0.0
12016 C 82.419 51.838 38.37 C 0.0 **** 0.0
12017 H 81.983 51.026 37.788 H 0.0 **** 0.0
12018 H 82.629 52.683 37.714 H 0.0 **** 0.0
12019 H 83.346 51.497 38.831 H 0.0 **** 0.0
12020 H 81.719 52.145 39.146 H 0.0 **** 0.0
12021 C 17.952 1.779 80.018 C 0.0 **** 0.0
12022 H 17.901 2.276 79.049 H 0.0 **** 0.0
12023 H 18.533 0.861 79.924 H 0.0 **** 0.0
12024 H 16.944 1.539 80.356 H 0.0 **** 0.0
12025 H 18.43 2.44 80.741 H 0.0 **** 0.0
12026 C 98.152 19.659 1.368 C 0.0 **** 0.0
12027 H 98.509 20.479 1.991 H 0.0 **** 0.0
12028 H 97.627 18.933 1.989 H 0.0 **** 0.0
12029 H 99.0 19.176 0.883 H 0.0 **** 0.0
12030 H 97.473 20.048 0.609 H 0.0 **** 0.0
12031 C 46.919 3.083 33.277 C 0.0 **** 0.0
12032 H 47.032 3.87 32.532 H 0.0 **** 0.0
12033 H 46.903 2.112 32.781 H 0.0 **** 0.0
12034 H 45.986 3.229 33.821 H 0.0 **** 0.0
12035 H 47.756 3.121 33.975 H 0.0 **** 0.0
12036 C 61.728 54.268 69.311 C 0.0 **** 0.0
12037 H 60.949 54.007 68.595 H 0.0 **** 0.0
12038 H 62.279 55.136 68.948 H 0.0 **** 0.0
12039 H 62.411 53.427 69.428 H 0.0 **** 0.0
12040 H 61.272 54.503 70.273 H 0.0 **** 0.0
12041 C 44.304 68.12 94.758 C 0.0 **** 0.0
12042 H 44.084 67.344 94.026 H 0.0 **** 0.0
12043 H 43.502 68.163 95.495 H 0.0 **** 0.0
12044 H 44.387 69.082 94.253 H 0.0 **** 0.0
12045 H 45.245 67.891 95.258 H 0.0 **** 0.0
12046 C 54.712 93.002 77.744 C 0.0 **** 0.0
12047 H 54.554 92.463 78.678 H 0.0 **** 0.0
12048 H 54.431 92.366 76.905 H 0.0 **** 0.0
12049 H 55.764 93.275 77.657 H 0.0 **** 0.0
12050 H 54.101 93.905 77.737 H 0.0 **** 0.0
12051 C 92.773 82.744 82.455 C 0.0 **** 0.0
12052 H 92.504 82.951 83.49 H 0.0 **** 0.0
12053 H 93.21 81.748 82.385 H 0.0 **** 0.0
12054 H 93.498 83.483 82.114 H 0.0 **** 0.0
12055 H 91.881 82.795 81.83 H 0.0 **** 0.0
12056 C 24.676 8.737 14.146 C 0.0 **** 0.0
12057 H 25.735 8.979 14.233 H 0.0 **** 0.0
12058 H 24.125 9.624 13.834 H 0.0 **** 0.0
12059 H 24.301 8.397 15.112 H 0.0 **** 0.0
12060 H 24.543 7.948 13.406 H 0.0 **** 0.0
12061 C 7.302 82.208 44.387 C 0.0 **** 0.0
12062 H 7.287 82.469 45.445 H 0.0 **** 0.0
12063 H 6.298 82.313 43.973 H 0.0 **** 0.0
12064 H 7.637 81.177 44.272 H 0.0 **** 0.0
12065 H 7.985 82.874 43.859 H 0.0 **** 0.0
12066 C 90.641 66.047 65.292 C 0.0 **** 0.0
12067 H 90.65 66.865 66.013 H 0.0 **** 0.0
12068 H 89.885 65.317 65.581 H 0.0 **** 0.0
12069 H 91.62 65.569 65.272 H 0.0 **** 0.0
12070 H 90.408 66.439 64.302 H 0.0 **** 0.0
12071 C 90.844 2.239 32.466 C 0.0 **** 0.0
12072 H 90.754 2.71 33.444 H 0.0 **** 0.0
12073 H 91.647 1.502 32.49 H 0.0 **** 0.0
12074 H 91.068 2.998 31.716 H 0.0 **** 0.0
12075 H 89.905 1.745 32.213 H 0.0 **** 0.0
12076 C 29.772 27.75 45.447 C 0.0 **** 0.0
12077 H 30.683 27.161 45.344 H 0.0 **** 0.0
12078 H 29.108 27.542 44.607 H 0.0 **** 0.0
12079 H 30.024 28.81 45.459 H 0.0 **** 0.0
12080 H 29.272 27.485 46.379 H 0.0 **** 0.0
12081 C 18.067 80.129 44.804 C 0.0 **** 0.0
12082 H 17.634 79.835 45.76 H 0.0 **** 0.0
12083 H 17.515 79.651 43.993 H 0.0 **** 0.0
12084 H 19.111 79.816 44.766 H 0.0 **** 0.0
12085 H 18.008 81.212 44.696 H 0.0 **** 0.0
12086 C 18.169 10.069 37.516 C 0.0 **** 0.0
12087 H 18.708 9.282 36.988 H 0.0 **** 0.0
12088 H 18.844 10.571 38.209 H 0.0 **** 0.0
12089 H 17.338 9.632 38.07 H 0.0 **** 0.0
12090 H 17.785 10.792 36.795 H 0.0 **** 0.0
12091 C 38.985 25.876 94.241 C 0.0 **** 0.0
12092 H 39.946 25.381 94.381 H 0.0 **** 0.0
12093 H 38.428 25.371 93.451 H 0.0 **** 0.0
12094 H 39.15 26.916 93.961 H 0.0 **** 0.0
12095 H 38.416 25.835 95.17 H 0.0 **** 0.0
12096 C 52.913 43.579 14.223 C 0.0 **** 0.0
12097 H 51.955 43.293 13.79 H 0.0 **** 0.0
12098 H 53.315 44.436 13.683 H 0.0 **** 0.0
12099 H 53.609 42.743 14.147 H 0.0 **** 0.0
12100 H 52.774 43.842 15.271 H 0.0 **** 0.0
12101 C 20.963 64.617 43.207 C 0.0 **** 0.0
12102 H 20.244 64.529 44.021 H 0.0 **** 0.0
12103 H 21.958 64.79 43.619 H 0.0 **** 0.0
12104 H 20.685 65.453 42.565 H 0.0 **** 0.0
12105 H 20.966 63.696 42.625 H 0.0 **** 0.0
12106 C 93.702 53.64 9.864 C 0.0 **** 0.0
12107 H 93.334 52.644 10.11 H 0.0 **** 0.0
12108 H 94.083 54.12 10.767 H 0.0 **** 0.0
12109 H 92.888 54.237 9.451 H 0.0 **** 0.0
12110 H 94.503 53.56 9.129 H 0.0 **** 0.0
12111 C 68.737 43.289 60.862 C 0.0 **** 0.0
12112 H 69.057 42.888 61.824 H 0.0 **** 0.0
12113 H 67.755 43.752 60.971 H 0.0 **** 0.0
12114 H 68.679 42.482 60.132 H 0.0 **** 0.0
12115 H 69.455 44.035 60.523 H 0.0 **** 0.0
12116 C 3.436 45.863 56.087 C 0.0 **** 0.0
12117 H 3.163 45.589 55.068 H 0.0 **** 0.0
12118 H 3.473 46.949 56.174 H 0.0 **** 0.0
12119 H 4.414 45.445 56.325 H 0.0 **** 0.0
12120 H 2.694 45.468 56.78 H 0.0 **** 0.0
12121 C 98.359 7.692 5.752 C 0.0 **** 0.0
12122 H 97.821 8.628 5.896 H 0.0 **** 0.0
12123 H 98.978 7.763 4.857 H 0.0 **** 0.0
12124 H 97.645 6.876 5.637 H 0.0 **** 0.0
12125 H 98.993 7.501 6.618 H 0.0 **** 0.0
12126 C 87.866 94.984 25.407 C 0.0 **** 0.0
12127 H 87.072 95.046 26.151 H 0.0 **** 0.0
12128 H 88.684 94.378 25.798 H 0.0 **** 0.0
12129 H 88.231 95.986 25.182 H 0.0 **** 0.0
12130 H 87.477 94.526 24.498 H 0.0 **** 0.0
12131 C 4.206 9.105 20.599 C 0.0 **** 0.0
12132 H 3.491 9.48 21.33 H 0.0 **** 0.0
12133 H 4.754 8.263 21.025 H 0.0 **** 0.0
12134 H 4.906 9.898 20.336 H 0.0 **** 0.0
12135 H 3.675 8.778 19.705 H 0.0 **** 0.0
12136 C 50.949 69.74 25.645 C 0.0 **** 0.0
12137 H 51.497 69.273 26.464 H 0.0 **** 0.0
12138 H 50.181 69.056 25.285 H 0.0 **** 0.0
12139 H 51.639 69.973 24.834 H 0.0 **** 0.0
12140 H 50.481 70.659 25.999 H 0.0 **** 0.0
12141 C 3.26 60.798 82.09 C 0.0 **** 0.0
12142 H 2.774 60.83 81.115 H 0.0 **** 0.0
12143 H 2.732 61.455 82.781 H 0.0 **** 0.0
12144 H 4.294 61.129 81.991 H 0.0 **** 0.0
12145 H 3.241 59.777 82.471 H 0.0 **** 0.0
12146 C 70.318 30.787 30.412 C 0.0 **** 0.0
12147 H 71.379 30.935 30.613 H 0.0 **** 0.0
12148 H 70.149 29.759 30.09 H 0.0 **** 0.0
12149 H 69.998 31.472 29.627 H 0.0 **** 0.0
12150 H 69.746 30.982 31.32 H 0.0 **** 0.0
12151 C 20.312 34.037 18.686 C 0.0 **** 0.0
12152 H 20.099 33.576 17.721 H 0.0 **** 0.0
12153 H 21.299 34.5 18.657 H 0.0 **** 0.0
12154 H 20.29 33.275 19.465 H 0.0 **** 0.0
12155 H 19.56 34.797 18.899 H 0.0 **** 0.0
12156 C 77.072 8.575 88.418 C 0.0 **** 0.0
12157 H 77.213 8.449 89.491 H 0.0 **** 0.0
12158 H 76.699 7.644 87.989 H 0.0 **** 0.0
12159 H 78.024 8.833 87.954 H 0.0 **** 0.0
12160 H 76.351 9.372 88.238 H 0.0 **** 0.0
12161 C 41.354 85.493 17.895 C 0.0 **** 0.0
12162 H 41.034 85.727 18.91 H 0.0 **** 0.0
12163 H 41.557 86.419 17.356 H 0.0 **** 0.0
12164 H 40.565 84.941 17.384 H 0.0 **** 0.0
12165 H 42.258 84.886 17.929 H 0.0 **** 0.0
12166 C 7.726 32.445 62.426 C 0.0 **** 0.0
12167 H 8.621 32.768 61.894 H 0.0 **** 0.0
12168 H 7.843 31.407 62.738 H 0.0 **** 0.0
12169 H 6.861 32.533 61.769 H 0.0 **** 0.0
12170 H 7.58 33.074 63.305 H 0.0 **** 0.0
12171 C 24.42 59.525 69.598 C 0.0 **** 0.0
12172 H 24.431 58.445 69.447 H 0.0 **** 0.0
12173 H 25.062 59.78 70.441 H 0.0 **** 0.0
12174 H 23.401 59.851 69.804 H 0.0 **** 0.0
12175 H 24.785 60.021 68.699 H 0.0 **** 0.0
12176 C 27.113 58.931 59.747 C 0.0 **** 0.0
12177 H 27.138 59.137 58.677 H 0.0 **** 0.0
12178 H 27.811 58.127 59.979 H 0.0 **** 0.0
12179 H 26.105 58.633 60.036 H 0.0 **** 0.0
12180 H 27.398 59.829 60.296 H 0.0 **** 0.0
12181 C 34.772 56.39 93.598 C 0.0 **** 0.0
12182 H 34.022 56.937 94.169 H 0.0 **** 0.0
12183 H 34.719 56.688 92.55 H 0.0 **** 0.0
12184 H 34.583 55.32 93.682 H 0.0 **** 0.0
12185 H 35.763 56.616 93.991 H 0.0 **** 0.0
12186 C 56.094 8.987 39.569 C 0.0 **** 0.0
12187 H 55.994 9.707 38.756 H 0.0 **** 0.0
12188 H 55.595 9.373 40.458 H 0.0 **** 0.0
12189 H 57.15 8.827 39.785 H 0.0 **** 0.0
12190 H 55.635 8.043 39.275 H 0.0 **** 0.0
12191 C 37.533 71.132 76.295 C 0.0 **** 0.0
12192 H 38.446 71.713 76.425 H 0.0 **** 0.0
12193 H 37.754 70.074 76.431 H 0.0 **** 0.0
12194 H 37.139 71.296 75.292 H 0.0 **** 0.0
12195 H 36.794 71.447 77.032 H 0.0 **** 0.0
12196 C 95.649 38.695 38.604 C 0.0 **** 0.0
12197 H 95.656 38.559 39.685 H 0.0 **** 0.0
12198 H 95.713 39.758 38.371 H 0.0 **** 0.0
12199 H 94.724 38.289 38.193 H 0.0 **** 0.0
12200 H 96.5 38.174 38.167 H 0.0 **** 0.0
12201 C 32.099 22.877 96.389 C 0.0 **** 0.0
12202 H 32.095 22.855 97.479 H 0.0 **** 0.0
12203 H 33.049 22.487 96.022 H 0.0 **** 0.0
12204 H 31.97 23.904 96.046 H 0.0 **** 0.0
12205 H 31.282 22.262 96.01 H 0.0 **** 0.0
12206 C 79.544 46.306 89.219 C 0.0 **** 0.0
12207 H 79.537 46.284 88.129 H 0.0 **** 0.0
12208 H 79.856 47.294 89.56 H 0.0 **** 0.0
12209 H 80.24 45.556 89.593 H 0.0 **** 0.0
12210 H 78.543 46.092 89.593 H 0.0 **** 0.0
12211 C 5.075 53.784 86.84 C 0.0 **** 0.0
12212 H 5.115 53.766 85.751 H 0.0 **** 0.0
12213 H 4.754 52.809 87.207 H 0.0 **** 0.0
12214 H 4.366 54.546 87.164 H 0.0 **** 0.0
12215 H 6.063 54.015 87.236 H 0.0 **** 0.0
12216 C 73.911 94.796 69.069 C 0.0 **** 0.0
12217 H 74.965 95.062 69.146 H 0.0 **** 0.0
12218 H 73.813 93.854 68.53 H 0.0 **** 0.0
12219 H 73.377 95.58 68.532 H 0.0 **** 0.0
12220 H 73.489 94.689 70.069 H 0.0 **** 0.0
12221 C 32.362 55.566 51.456 C 0.0 **** 0.0
12222 H 33.085 54.8 51.737 H 0.0 **** 0.0
12223 H 31.936 56.01 52.356 H 0.0 **** 0.0
12224 H 31.567 55.115 50.862 H 0.0 **** 0.0
12225 H 32.86 56.338 50.87 H 0.0 **** 0.0
12226 C 77.457 55.644 6.007 C 0.0 **** 0.0
12227 H 76.759 55.262 6.752 H 0.0 **** 0.0
12228 H 77.033 56.528 5.531 H 0.0 **** 0.0
12229 H 77.64 54.877 5.254 H 0.0 **** 0.0
12230 H 78.397 55.907 6.491 H 0.0 **** 0.0
12231 C 68.094 86.63 2.268 C 0.0 **** 0.0
12232 H 68.337 87.408 1.543 H 0.0 **** 0.0
12233 H 68.747 85.771 2.111 H 0.0 **** 0.0
12234 H 67.055 86.326 2.138 H 0.0 **** 0.0
12235 H 68.237 87.017 3.277 H 0.0 **** 0.0
12236 C 57.621 74.025 77.453 C 0.0 **** 0.0
12237 H 56.732 74.108 78.078 H 0.0 **** 0.0
12238 H 58.506 74.248 78.05 H 0.0 **** 0.0
12239 H 57.552 74.733 76.627 H 0.0 **** 0.0
12240 H 57.694 73.012 77.059 H 0.0 **** 0.0
12241 C 40.014 9.255 1.013 C 0.0 **** 0.0
12242 H 39.356 9.533 0.189 H 0.0 **** 0.0
12243 H 39.413 8.979 1.879 H 0.0 **** 0.0
12244 H 40.653 10.101 1.267 H 0.0 **** 0.0
12245 H 40.633 8.409 0.714 H 0.0 **** 0.0
12246 C 1.553 79.844 71.111 C 0.0 **** 0.0
12247 H 2.108 80.512 70.452 H 0.0 **** 0.0
12248 H 0.728 79.393 70.56 H 0.0 **** 0.0
12249 H 1.16 80.412 71.955 H 0.0 **** 0.0
12250 H 2.217 79.061 71.478 H 0.0 **** 0.0
12251 C 76.88 35.384 27.607 C 0.0 **** 0.0
12252 H 77.846 35.096 28.022 H 0.0 **** 0.0
12253 H 77.004 35.66 26.559 H 0.0 **** 0.0
12254 H 76.485 36.234 28.163 H 0.0 **** 0.0
12255 H 76.187 34.546 27.683 H 0.0 **** 0.0
12256 C 31.006 49.668 92.001 C 0.0 **** 0.0
12257 H 31.642 50.319 92.601 H 0.0 **** 0.0
12258 H 30.047 50.156 91.827 H 0.0 **** 0.0
12259 H 30.845 48.729 92.53 H 0.0 **** 0.0
12260 H 31.491 49.468 91.045 H 0.0 **** 0.0
12261 C 49.179 72.786 4.318 C 0.0 **** 0.0
12262 H 48.664 73.28 3.494 H 0.0 **** 0.0
12263 H 49.094 71.705 4.203 H 0.0 **** 0.0
12264 H 48.726 73.087 5.263 H 0.0 **** 0.0
12265 H 50.231 73.071 4.313 H 0.0 **** 0.0
12266 C 60.93 24.37 15.0 C 0.0 **** 0.0
12267 H 60.448 25.104 14.354 H 0.0 **** 0.0
12268 H 60.226 24.04 15.763 H 0.0 **** 0.0
12269 H 61.799 24.824 15.478 H 0.0 **** 0.0
12270 H 61.249 23.515 14.404 H 0.0 **** 0.0
12271 C 56.728 39.624 54.297 C 0.0 **** 0.0
12272 H 56.692 39.764 55.377 H 0.0 **** 0.0
12273 H 57.395 40.365 53.857 H 0.0 **** 0.0
12274 H 55.727 39.743 53.882 H 0.0 **** 0.0
12275 H 57.098 38.623 54.073 H 0.0 **** 0.0
12276 C 37.346 54.321 64.411 C 0.0 **** 0.0
12277 H 37.161 55.101 65.15 H 0.0 **** 0.0
12278 H 36.402 54.018 63.958 H 0.0 **** 0.0
12279 H 37.809 53.462 64.897 H 0.0 **** 0.0
12280 H 38.013 54.705 63.639 H 0.0 **** 0.0
12281 C 63.423 38.347 83.481 C 0.0 **** 0.0
12282 H 64.271 38.218 84.154 H 0.0 **** 0.0
12283 H 62.503 38.081 84.002 H 0.0 **** 0.0
12284 H 63.548 37.702 82.612 H 0.0 **** 0.0
12285 H 63.371 39.387 83.158 H 0.0 **** 0.0
12286 C 95.044 69.996 4.032 C 0.0 **** 0.0
12287 H 94.502 69.525 3.213 H 0.0 **** 0.0
12288 H 95.007 71.08 3.916 H 0.0 **** 0.0
12289 H 96.082 69.664 4.018 H 0.0 **** 0.0
12290 H 94.585 69.716 4.98 H 0.0 **** 0.0
12291 C 65.715 1.01 55.237 C 0.0 **** 0.0
12292 H 65.121 1.897 55.456 H 0.0 **** 0.0
12293 H 66.732 1.307 54.982 H 0.0 **** 0.0
12294 H 65.271 0.473 54.399 H 0.0 **** 0.0
12295 H 65.735 0.362 56.114 H 0.0 **** 0.0
12296 C 61.23 40.417 91.489 C 0.0 **** 0.0
12297 H 60.682 40.553 90.557 H 0.0 **** 0.0
12298 H 62.085 41.093 91.51 H 0.0 **** 0.0
12299 H 61.58 39.387 91.557 H 0.0 **** 0.0
12300 H 60.574 40.635 92.331 H 0.0 **** 0.0
12301 C 60.468 75.128 66.709 C 0.0 **** 0.0
12302 H 61.31 75.318 67.375 H 0.0 **** 0.0
12303 H 60.231 76.036 66.154 H 0.0 **** 0.0
12304 H 59.602 74.824 67.296 H 0.0 **** 0.0
12305 H 60.731 74.333 66.01 H 0.0 **** 0.0
12306 C 20.843 73.02 97.219 C 0.0 **** 0.0
12307 H 21.821 72.744 96.824 H 0.0 **** 0.0
12308 H 20.135 72.212 97.034 H 0.0 **** 0.0
12309 H 20.496 73.928 96.725 H 0.0 **** 0.0
12310 H 20.921 73.197 98.292 H 0.0 **** 0.0
12311 C 37.095 39.689 41.024 C 0.0 **** 0.0
12312 H 36.009 39.657 40.935 H 0.0 **** 0.0
12313 H 37.545 39.473 40.055 H 0.0 **** 0.0
12314 H 37.422 38.945 41.751 H 0.0 **** 0.0
12315 H 37.403 40.681 41.356 H 0.0 **** 0.0
12316 C 49.525 23.298 40.394 C 0.0 **** 0.0
12317 H 49.529 23.309 39.304 H 0.0 **** 0.0
12318 H 49.971 22.369 40.75 H 0.0 **** 0.0
12319 H 48.498 23.369 40.754 H 0.0 **** 0.0
12320 H 50.1 24.144 40.768 H 0.0 **** 0.0
12321 C 42.737 80.696 15.357 C 0.0 **** 0.0
12322 H 42.696 80.68 14.268 H 0.0 **** 0.0
12323 H 41.837 81.172 15.747 H 0.0 **** 0.0
12324 H 43.614 81.257 15.679 H 0.0 **** 0.0
12325 H 42.801 79.675 15.733 H 0.0 **** 0.0
12326 C 86.36 39.822 30.817 C 0.0 **** 0.0
12327 H 86.321 40.073 29.757 H 0.0 **** 0.0
12328 H 85.462 40.192 31.311 H 0.0 **** 0.0
12329 H 87.239 40.283 31.267 H 0.0 **** 0.0
12330 H 86.418 38.739 30.932 H 0.0 **** 0.0
12331 C 64.129 35.581 25.71 C 0.0 **** 0.0
12332 H 63.481 36.458 25.743 H 0.0 **** 0.0
12333 H 63.601 34.757 25.23 H 0.0 **** 0.0
12334 H 64.402 35.295 26.726 H 0.0 **** 0.0
12335 H 65.029 35.816 25.144 H 0.0 **** 0.0
12336 C 21.428 55.295 89.808 C 0.0 **** 0.0
12337 H 21.412 55.547 90.868 H 0.0 **** 0.0
12338 H 22.011 56.04 89.266 H 0.0 **** 0.0
12339 H 20.409 55.28 89.423 H 0.0 **** 0.0
12340 H 21.881 54.312 89.675 H 0.0 **** 0.0
12341 C 9.747 1.014 18.896 C 0.0 **** 0.0
12342 H 9.851 0.887 19.974 H 0.0 **** 0.0
12343 H 10.614 0.581 18.395 H 0.0 **** 0.0
12344 H 9.684 2.076 18.66 H 0.0 **** 0.0
12345 H 8.842 0.511 18.557 H 0.0 **** 0.0
12346 C 96.62 21.357 35.549 C 0.0 **** 0.0
12347 H 96.955 21.103 36.555 H 0.0 **** 0.0
12348 H 95.869 22.145 35.604 H 0.0 **** 0.0
12349 H 96.188 20.475 35.077 H 0.0 **** 0.0
12350 H 97.47 21.705 34.961 H 0.0 **** 0.0
12351 C 73.347 47.883 55.203 C 0.0 **** 0.0
12352 H 73.536 47.079 55.915 H 0.0 **** 0.0
12353 H 72.47 47.639 54.604 H 0.0 **** 0.0
12354 H 74.213 48.001 54.551 H 0.0 **** 0.0
12355 H 73.171 48.812 55.745 H 0.0 **** 0.0
12356 C 31.635 16.302 52.798 C 0.0 **** 0.0
12357 H 31.885 16.5 51.755 H 0.0 **** 0.0
12358 H 32.546 16.312 53.397 H 0.0 **** 0.0
12359 H 31.158 15.325 52.878 H 0.0 **** 0.0
12360 H 30.953 17.071 53.16 H 0.0 **** 0.0
12361 C 19.523 27.552 29.595 C 0.0 **** 0.0
12362 H 19.232 28.051 30.52 H 0.0 **** 0.0
12363 H 18.992 28.004 28.757 H 0.0 **** 0.0
12364 H 19.27 26.494 29.659 H 0.0 **** 0.0
12365 H 20.597 27.661 29.446 H 0.0 **** 0.0
12366 C 17.955 51.656 55.56 C 0.0 **** 0.0
12367 H 17.204 51.332 56.282 H 0.0 **** 0.0
12368 H 18.652 50.839 55.371 H 0.0 **** 0.0
12369 H 18.497 52.512 55.96 H 0.0 **** 0.0
12370 H 17.464 51.938 54.629 H 0.0 **** 0.0
12371 C 72.251 17.567 37.713 C 0.0 **** 0.0
12372 H 72.265 17.597 36.624 H 0.0 **** 0.0
12373 H 71.247 17.315 38.057 H 0.0 **** 0.0
12374 H 72.535 18.543 38.107 H 0.0 **** 0.0
12375 H 72.956 16.814 38.065 H 0.0 **** 0.0
12376 C 3.545 44.404 97.119 C 0.0 **** 0.0
12377 H 2.831 44.887 97.786 H 0.0 **** 0.0
12378 H 3.372 44.741 96.096 H 0.0 **** 0.0
12379 H 3.417 43.323 97.172 H 0.0 **** 0.0
12380 H 4.559 44.665 97.421 H 0.0 **** 0.0
12381 C 54.368 11.918 33.651 C 0.0 **** 0.0
12382 H 54.627 12.972 33.549 H 0.0 **** 0.0
12383 H 54.077 11.713 34.681 H 0.0 **** 0.0
12384 H 55.229 11.305 33.387 H 0.0 **** 0.0
12385 H 53.537 11.683 32.985 H 0.0 **** 0.0
12386 C 28.552 4.705 96.501 C 0.0 **** 0.0
12387 H 29.585 5.014 96.342 H 0.0 **** 0.0
12388 H 28.533 3.804 97.114 H 0.0 **** 0.0
12389 H 28.081 4.502 95.539 H 0.0 **** 0.0
12390 H 28.009 5.502 97.01 H 0.0 **** 0.0
12391 C 1.25 9.458 79.718 C 0.0 **** 0.0
12392 H 1.021 9.25 78.672 H 0.0 **** 0.0
12393 H 1.188 8.534 80.293 H 0.0 **** 0.0
12394 H 0.533 10.18 80.109 H 0.0 **** 0.0
12395 H 2.257 9.868 79.794 H 0.0 **** 0.0
12396 C 79.368 43.532 23.022 C 0.0 **** 0.0
12397 H 79.395 42.69 22.33 H 0.0 **** 0.0
12398 H 80.336 43.627 23.516 H 0.0 **** 0.0
12399 H 78.593 43.363 23.769 H 0.0 **** 0.0
12400 H 79.149 44.447 22.472 H 0.0 **** 0.0
12401 C 54.35 38.98 57.604 C 0.0 **** 0.0
12402 H 54.337 39.966 57.14 H 0.0 **** 0.0
12403 H 54.514 38.22 56.838 H 0.0 **** 0.0
12404 H 53.396 38.798 58.098 H 0.0 **** 0.0
12405 H 55.155 38.935 58.338 H 0.0 **** 0.0
12406 C 89.164 47.52 27.942 C 0.0 **** 0.0
12407 H 89.519 47.423 26.916 H 0.0 **** 0.0
12408 H 88.112 47.807 27.936 H 0.0 **** 0.0
12409 H 89.746 48.284 28.457 H 0.0 **** 0.0
12410 H 89.278 46.566 28.457 H 0.0 **** 0.0
12411 C 72.614 75.347 20.052 C 0.0 **** 0.0
12412 H 72.829 74.917 19.074 H 0.0 **** 0.0
12413 H 73.09 74.745 20.826 H 0.0 **** 0.0
12414 H 71.536 75.36 20.213 H 0.0 **** 0.0
12415 H 73.0 76.365 20.094 H 0.0 **** 0.0
12416 C 44.021 68.722 16.809 C 0.0 **** 0.0
12417 H 43.258 69.497 16.88 H 0.0 **** 0.0
12418 H 43.543 67.743 16.765 H 0.0 **** 0.0
12419 H 44.67 68.771 17.684 H 0.0 **** 0.0
12420 H 44.614 68.878 15.908 H 0.0 **** 0.0
12421 C 29.998 54.095 24.547 C 0.0 **** 0.0
12422 H 29.989 54.22 23.465 H 0.0 **** 0.0
12423 H 30.455 53.137 24.798 H 0.0 **** 0.0
12424 H 28.976 54.119 24.924 H 0.0 **** 0.0
12425 H 30.573 54.902 25.002 H 0.0 **** 0.0
12426 C 67.54 22.907 27.823 C 0.0 **** 0.0
12427 H 68.161 22.021 27.949 H 0.0 **** 0.0
12428 H 68.163 23.746 27.512 H 0.0 **** 0.0
12429 H 67.052 23.146 28.768 H 0.0 **** 0.0
12430 H 66.783 22.714 27.062 H 0.0 **** 0.0
12431 C 76.021 27.673 45.851 C 0.0 **** 0.0
12432 H 75.057 27.174 45.95 H 0.0 **** 0.0
12433 H 76.81 27.017 46.221 H 0.0 **** 0.0
12434 H 76.013 28.595 46.433 H 0.0 **** 0.0
12435 H 76.203 27.906 44.802 H 0.0 **** 0.0
12436 C 3.249 62.467 51.984 C 0.0 **** 0.0
12437 H 2.841 63.478 51.992 H 0.0 **** 0.0
12438 H 3.136 62.022 52.972 H 0.0 **** 0.0
12439 H 4.306 62.504 51.72 H 0.0 **** 0.0
12440 H 2.713 61.865 51.25 H 0.0 **** 0.0
12441 C 49.02 20.008 58.433 C 0.0 **** 0.0
12442 H 48.356 19.486 57.744 H 0.0 **** 0.0
12443 H 49.92 20.321 57.903 H 0.0 **** 0.0
12444 H 49.293 19.34 59.25 H 0.0 **** 0.0
12445 H 48.511 20.884 58.835 H 0.0 **** 0.0
12446 C 77.066 67.573 37.413 C 0.0 **** 0.0
12447 H 76.014 67.656 37.141 H 0.0 **** 0.0
12448 H 77.468 66.636 37.028 H 0.0 **** 0.0
12449 H 77.162 67.591 38.499 H 0.0 **** 0.0
12450 H 77.619 68.409 36.985 H 0.0 **** 0.0
12451 C 8.372 77.468 85.046 C 0.0 **** 0.0
12452 H 8.235 77.945 86.017 H 0.0 **** 0.0
12453 H 9.425 77.505 84.769 H 0.0 **** 0.0
12454 H 7.779 77.992 84.297 H 0.0 **** 0.0
12455 H 8.048 76.429 85.104 H 0.0 **** 0.0
12456 C 18.62 30.88 95.133 C 0.0 **** 0.0
12457 H 19.135 30.837 94.174 H 0.0 **** 0.0
12458 H 17.812 31.61 95.079 H 0.0 **** 0.0
12459 H 19.325 31.175 95.911 H 0.0 **** 0.0
12460 H 18.209 29.898 95.369 H 0.0 **** 0.0
12461 C 81.725 1.187 57.056 C 0.0 **** 0.0
12462 H 82.169 0.569 57.836 H 0.0 **** 0.0
12463 H 81.476 2.166 57.465 H 0.0 **** 0.0
12464 H 80.82 0.707 56.684 H 0.0 **** 0.0
12465 H 82.436 1.305 56.238 H 0.0 **** 0.0
12466 C 87.537 52.893 90.246 C 0.0 **** 0.0
12467 H 86.848 53.512 89.672 H 0.0 **** 0.0
12468 H 87.03 51.979 90.558 H 0.0 **** 0.0
12469 H 87.872 53.442 91.126 H 0.0 **** 0.0
12470 H 88.398 52.638 89.628 H 0.0 **** 0.0
12471 C 54.612 69.079 10.335 C 0.0 **** 0.0
12472 H 54.653 68.894 9.262 H 0.0 **** 0.0
12473 H 55.402 68.516 10.832 H 0.0 **** 0.0
12474 H 53.642 68.764 10.721 H 0.0 **** 0.0
12475 H 54.749 70.144 10.525 H 0.0 **** 0.0
12476 C 76.274 17.447 96.047 C 0.0 **** 0.0
12477 H 76.191 17.719 97.099 H 0.0 **** 0.0
12478 H 76.458 16.376 95.962 H 0.0 **** 0.0
12479 H 77.101 17.995 95.594 H 0.0 **** 0.0
12480 H 75.347 17.7 95.532 H 0.0 **** 0.0
12481 C 60.346 92.718 61.982 C 0.0 **** 0.0
12482 H 61.326 92.827 61.518 H 0.0 **** 0.0
12483 H 60.468 92.471 63.037 H 0.0 **** 0.0
12484 H 59.795 91.92 61.483 H 0.0 **** 0.0
12485 H 59.794 93.653 61.889 H 0.0 **** 0.0
12486 C 81.291 11.009 58.161 C 0.0 **** 0.0
12487 H 81.323 11.114 57.076 H 0.0 **** 0.0
12488 H 82.294 10.802 58.535 H 0.0 **** 0.0
12489 H 80.628 10.186 58.426 H 0.0 **** 0.0
12490 H 80.92 11.932 58.605 H 0.0 **** 0.0
12491 C 17.593 78.247 64.065 C 0.0 **** 0.0
12492 H 17.996 78.176 63.055 H 0.0 **** 0.0
12493 H 17.308 77.253 64.413 H 0.0 **** 0.0
12494 H 16.718 78.896 64.063 H 0.0 **** 0.0
12495 H 18.351 78.661 64.73 H 0.0 **** 0.0
12496 C 68.03 88.01 35.888 C 0.0 **** 0.0
12497 H 68.729 87.283 36.302 H 0.0 **** 0.0
12498 H 68.564 88.928 35.642 H 0.0 **** 0.0
12499 H 67.254 88.227 36.623 H 0.0 **** 0.0
12500 H 67.573 87.602 34.987 H 0.0 **** 0.0
12501 C 50.691 83.047 45.851 C 0.0 **** 0.0
12502 H 50.44 82.778 44.825 H 0.0 **** 0.0
12503 H 50.151 82.396 46.539 H 0.0 **** 0.0
12504 H 50.408 84.084 46.034 H 0.0 **** 0.0
12505 H 51.763 82.931 46.006 H 0.0 **** 0.0
12506 C 4.767 18.914 54.999 C 0.0 **** 0.0
12507 H 5.586 19.453 55.475 H 0.0 **** 0.0
12508 H 4.001 18.69 55.741 H 0.0 **** 0.0
12509 H 5.144 17.984 54.572 H 0.0 **** 0.0
12510 H 4.339 19.529 54.208 H 0.0 **** 0.0
12511 C 63.879 66.976 61.877 C 0.0 **** 0.0
12512 H 64.548 67.837 61.87 H 0.0 **** 0.0
12513 H 62.87 67.299 61.621 H 0.0 **** 0.0
12514 H 63.876 66.528 62.871 H 0.0 **** 0.0
12515 H 64.223 66.243 61.148 H 0.0 **** 0.0
12516 C 65.182 85.397 49.458 C 0.0 **** 0.0
12517 H 65.232 84.465 48.895 H 0.0 **** 0.0
12518 H 64.172 85.804 49.398 H 0.0 **** 0.0
12519 H 65.888 86.113 49.038 H 0.0 **** 0.0
12520 H 65.435 85.206 50.5 H 0.0 **** 0.0
12521 C 67.384 67.982 50.825 C 0.0 **** 0.0
12522 H 66.59 68.36 50.181 H 0.0 **** 0.0
12523 H 68.343 68.373 50.486 H 0.0 **** 0.0
12524 H 67.399 66.893 50.781 H 0.0 **** 0.0
12525 H 67.202 68.301 51.851 H 0.0 **** 0.0
12526 C 94.264 21.335 86.223 C 0.0 **** 0.0
12527 H 94.974 20.987 85.472 H 0.0 **** 0.0
12528 H 93.977 22.363 86.003 H 0.0 **** 0.0
12529 H 94.726 21.289 87.208 H 0.0 **** 0.0
12530 H 93.378 20.699 86.207 H 0.0 **** 0.0
12531 C 47.711 4.574 38.473 C 0.0 **** 0.0
12532 H 48.663 5.075 38.3 H 0.0 **** 0.0
12533 H 47.868 3.495 38.495 H 0.0 **** 0.0
12534 H 47.017 4.825 37.671 H 0.0 **** 0.0
12535 H 47.298 4.901 39.427 H 0.0 **** 0.0
12536 C 38.891 3.751 32.73 C 0.0 **** 0.0
12537 H 39.464 3.195 33.472 H 0.0 **** 0.0
12538 H 37.971 4.12 33.184 H 0.0 **** 0.0
12539 H 38.647 3.096 31.894 H 0.0 **** 0.0
12540 H 39.483 4.594 32.371 H 0.0 **** 0.0
12541 C 65.356 43.345 38.82 C 0.0 **** 0.0
12542 H 65.431 43.039 39.864 H 0.0 **** 0.0
12543 H 65.1 42.481 38.207 H 0.0 **** 0.0
12544 H 66.311 43.754 38.492 H 0.0 **** 0.0
12545 H 64.581 44.105 38.72 H 0.0 **** 0.0
12546 C 86.391 74.931 36.625 C 0.0 **** 0.0
12547 H 86.595 75.458 37.557 H 0.0 **** 0.0
12548 H 85.562 74.239 36.774 H 0.0 **** 0.0
12549 H 87.278 74.377 36.319 H 0.0 **** 0.0
12550 H 86.127 75.652 35.851 H 0.0 **** 0.0
12551 C 68.366 65.326 42.12 C 0.0 **** 0.0
12552 H 67.362 65.032 42.427 H 0.0 **** 0.0
12553 H 69.056 64.501 42.298 H 0.0 **** 0.0
12554 H 68.681 66.196 42.696 H 0.0 **** 0.0
12555 H 68.362 65.575 41.059 H 0.0 **** 0.0
12556 C 48.414 46.532 24.188 C 0.0 **** 0.0
12557 H 48.877 46.118 25.083 H 0.0 **** 0.0
12558 H 47.667 45.835 23.809 H 0.0 **** 0.0
12559 H 49.178 46.695 23.427 H 0.0 **** 0.0
12560 H 47.936 47.481 24.432 H 0.0 **** 0.0
12561 C 63.227 91.871 19.996 C 0.0 **** 0.0
12562 H 63.226 91.781 21.083 H 0.0 **** 0.0
12563 H 63.811 91.057 19.565 H 0.0 **** 0.0
12564 H 63.669 92.826 19.712 H 0.0 **** 0.0
12565 H 62.203 91.819 19.627 H 0.0 **** 0.0
12566 C 29.758 15.609 35.267 C 0.0 **** 0.0
12567 H 29.727 15.624 36.356 H 0.0 **** 0.0
12568 H 28.803 15.956 34.872 H 0.0 **** 0.0
12569 H 29.947 14.593 34.922 H 0.0 **** 0.0
12570 H 30.556 16.265 34.918 H 0.0 **** 0.0
12571 C 94.098 9.862 33.591 C 0.0 **** 0.0
12572 H 93.594 10.098 32.653 H 0.0 **** 0.0
12573 H 93.426 10.067 34.425 H 0.0 **** 0.0
12574 H 94.994 10.475 33.686 H 0.0 **** 0.0
12575 H 94.376 8.808 33.598 H 0.0 **** 0.0
12576 C 27.481 83.131 24.561 C 0.0 **** 0.0
12577 H 27.633 82.727 23.56 H 0.0 **** 0.0
12578 H 27.761 82.382 25.302 H 0.0 **** 0.0
12579 H 26.431 83.396 24.69 H 0.0 **** 0.0
12580 H 28.098 84.02 24.691 H 0.0 **** 0.0
12581 C 37.138 9.379 86.714 C 0.0 **** 0.0
12582 H 36.353 9.733 86.046 H 0.0 **** 0.0
12583 H 37.247 8.3 86.608 H 0.0 **** 0.0
12584 H 36.873 9.618 87.744 H 0.0 **** 0.0
12585 H 38.079 9.867 86.459 H 0.0 **** 0.0
12586 C 51.729 33.385 45.875 C 0.0 **** 0.0
12587 H 51.616 34.422 46.193 H 0.0 **** 0.0
12588 H 52.638 33.284 45.283 H 0.0 **** 0.0
12589 H 50.868 33.095 45.273 H 0.0 **** 0.0
12590 H 51.792 32.742 46.752 H 0.0 **** 0.0
12591 C 35.144 75.182 59.071 C 0.0 **** 0.0
12592 H 35.943 75.923 59.09 H 0.0 **** 0.0
12593 H 35.064 74.76 58.069 H 0.0 **** 0.0
12594 H 34.201 75.657 59.342 H 0.0 **** 0.0
12595 H 35.368 74.388 59.783 H 0.0 **** 0.0
12596 C 1.03 52.112 43.591 C 0.0 **** 0.0
12597 H 1.456 52.271 44.582 H 0.0 **** 0.0
12598 H 1.618 51.364 43.059 H 0.0 **** 0.0
12599 H 1.046 53.05 43.035 H 0.0 **** 0.0
12600 H 0.001 51.765 43.689 H 0.0 **** 0.0
12601 C 71.996 14.1 76.561 C 0.0 **** 0.0
12602 H 72.845 14.257 77.227 H 0.0 **** 0.0
12603 H 71.377 14.997 76.544 H 0.0 **** 0.0
12604 H 71.404 13.257 76.92 H 0.0 **** 0.0
12605 H 72.358 13.888 75.555 H 0.0 **** 0.0
12606 C 56.781 48.964 35.519 C 0.0 **** 0.0
12607 H 56.471 48.75 36.542 H 0.0 **** 0.0
12608 H 57.772 49.419 35.528 H 0.0 **** 0.0
12609 H 56.07 49.651 35.06 H 0.0 **** 0.0
12610 H 56.811 48.037 34.947 H 0.0 **** 0.0
12611 C 53.357 54.325 83.299 C 0.0 **** 0.0
12612 H 53.52 54.626 84.334 H 0.0 **** 0.0
12613 H 54.127 54.767 82.666 H 0.0 **** 0.0
12614 H 52.376 54.667 82.972 H 0.0 **** 0.0
12615 H 53.406 53.238 83.225 H 0.0 **** 0.0
12616 C 84.83 59.668 23.509 C 0.0 **** 0.0
12617 H 84.113 59.569 24.324 H 0.0 **** 0.0
12618 H 85.549 58.85 23.557 H 0.0 **** 0.0
12619 H 85.354 60.619 23.601 H 0.0 **** 0.0
12620 H 84.303 59.634 22.555 H 0.0 **** 0.0
12621 C 78.822 67.622 78.009 C 0.0 **** 0.0
12622 H 79.246 66.801 78.588 H 0.0 **** 0.0
12623 H 79.617 68.127 77.46 H 0.0 **** 0.0
12624 H 78.339 68.33 78.683 H 0.0 **** 0.0
12625 H 78.087 67.23 77.307 H 0.0 **** 0.0
12626 C 86.283 23.647 64.057 C 0.0 **** 0.0
12627 H 85.691 24.233 64.759 H 0.0 **** 0.0
12628 H 87.163 24.218 63.759 H 0.0 **** 0.0
12629 H 85.682 23.419 63.177 H 0.0 **** 0.0
12630 H 86.597 22.718 64.533 H 0.0 **** 0.0
12631 C 29.809 54.547 31.584 C 0.0 **** 0.0
12632 H 30.601 55.264 31.37 H 0.0 **** 0.0
12633 H 29.897 54.206 32.616 H 0.0 **** 0.0
12634 H 29.899 53.695 30.911 H 0.0 **** 0.0
12635 H 28.839 55.023 31.439 H 0.0 **** 0.0
12636 C 20.933 74.22 72.938 C 0.0 **** 0.0
12637 H 20.06 74.872 72.959 H 0.0 **** 0.0
12638 H 21.128 73.907 71.912 H 0.0 **** 0.0
12639 H 20.745 73.342 73.556 H 0.0 **** 0.0
12640 H 21.798 74.758 73.324 H 0.0 **** 0.0
12641 C 26.49 27.017 97.426 C 0.0 **** 0.0
12642 H 26.144 26.103 96.943 H 0.0 **** 0.0
12643 H 26.987 26.766 98.363 H 0.0 **** 0.0
12644 H 25.638 27.665 97.629 H 0.0 **** 0.0
12645 H 27.19 27.532 96.769 H 0.0 **** 0.0
12646 C 23.112 26.48 58.94 C 0.0 **** 0.0
12647 H 23.742 25.918 58.251 H 0.0 **** 0.0
12648 H 22.236 25.885 59.2 H 0.0 **** 0.0
12649 H 22.793 27.408 58.465 H 0.0 **** 0.0
12650 H 23.677 26.71 59.843 H 0.0 **** 0.0
12651 C 22.118 67.324 9.12 C 0.0 **** 0.0
12652 H 22.281 67.502 10.183 H 0.0 **** 0.0
12653 H 21.378 66.534 8.993 H 0.0 **** 0.0
12654 H 23.057 67.021 8.655 H 0.0 **** 0.0
12655 H 21.759 68.239 8.649 H 0.0 **** 0.0
12656 C 24.336 62.763 70.952 C 0.0 **** 0.0
12657 H 24.694 63.134 71.912 H 0.0 **** 0.0
12658 H 24.286 63.586 70.239 H 0.0 **** 0.0
12659 H 23.344 62.33 71.077 H 0.0 **** 0.0
12660 H 25.02 62.0 70.579 H 0.0 **** 0.0
12661 C 39.908 54.589 72.16 C 0.0 **** 0.0
12662 H 38.864 54.384 72.398 H 0.0 **** 0.0
12663 H 40.552 54.037 72.846 H 0.0 **** 0.0
12664 H 40.1 55.657 72.259 H 0.0 **** 0.0
12665 H 40.114 54.276 71.136 H 0.0 **** 0.0
12666 C 43.335 77.855 4.379 C 0.0 **** 0.0
12667 H 42.984 77.654 5.392 H 0.0 **** 0.0
12668 H 42.889 77.137 3.691 H 0.0 **** 0.0
12669 H 44.42 77.764 4.347 H 0.0 **** 0.0
12670 H 43.046 78.865 4.089 H 0.0 **** 0.0
12671 C 1.431 74.073 45.912 C 0.0 **** 0.0
12672 H 1.324 74.093 44.828 H 0.0 **** 0.0
12673 H 2.247 73.403 46.184 H 0.0 **** 0.0
12674 H 0.504 73.72 46.363 H 0.0 **** 0.0
12675 H 1.651 75.078 46.273 H 0.0 **** 0.0
12676 C 33.161 97.873 54.977 C 0.0 **** 0.0
12677 H 33.17 97.864 56.067 H 0.0 **** 0.0
12678 H 33.854 97.119 54.602 H 0.0 **** 0.0
12679 H 33.465 98.856 54.619 H 0.0 **** 0.0
12680 H 32.155 97.651 54.62 H 0.0 **** 0.0
12681 C 75.735 84.757 49.012 C 0.0 **** 0.0
12682 H 76.808 84.588 49.101 H 0.0 **** 0.0
12683 H 75.254 83.851 48.642 H 0.0 **** 0.0
12684 H 75.552 85.576 48.316 H 0.0 **** 0.0
12685 H 75.326 85.012 49.99 H 0.0 **** 0.0
12686 C 61.13 14.474 47.522 C 0.0 **** 0.0
12687 H 60.157 14.285 47.069 H 0.0 **** 0.0
12688 H 61.898 14.463 46.748 H 0.0 **** 0.0
12689 H 61.344 13.701 48.259 H 0.0 **** 0.0
12690 H 61.12 15.449 48.01 H 0.0 **** 0.0
12691 C 15.572 90.563 58.511 C 0.0 **** 0.0
12692 H 16.537 91.055 58.388 H 0.0 **** 0.0
12693 H 15.699 89.485 58.409 H 0.0 **** 0.0
12694 H 14.882 90.922 57.748 H 0.0 **** 0.0
12695 H 15.172 90.79 59.499 H 0.0 **** 0.0
12696 C 87.13 77.692 53.753 C 0.0 **** 0.0
12697 H 87.548 76.695 53.89 H 0.0 **** 0.0
12698 H 86.379 77.879 54.521 H 0.0 **** 0.0
12699 H 86.668 77.759 52.768 H 0.0 **** 0.0
12700 H 87.924 78.433 53.833 H 0.0 **** 0.0
12701 C 84.175 60.045 87.798 C 0.0 **** 0.0
12702 H 84.381 60.265 86.75 H 0.0 **** 0.0
12703 H 85.057 59.598 88.256 H 0.0 **** 0.0
12704 H 83.338 59.349 87.864 H 0.0 **** 0.0
12705 H 83.922 60.968 88.32 H 0.0 **** 0.0
12706 C 23.12 81.173 23.321 C 0.0 **** 0.0
12707 H 22.158 81.179 22.807 H 0.0 **** 0.0
12708 H 23.913 80.963 22.603 H 0.0 **** 0.0
12709 H 23.115 80.403 24.092 H 0.0 **** 0.0
12710 H 23.292 82.147 23.779 H 0.0 **** 0.0
12711 C 32.289 94.389 65.389 C 0.0 **** 0.0
12712 H 32.347 94.391 66.477 H 0.0 **** 0.0
12713 H 31.449 95.006 65.069 H 0.0 **** 0.0
12714 H 32.147 93.368 65.034 H 0.0 **** 0.0
12715 H 33.214 94.792 64.975 H 0.0 **** 0.0
12716 C 75.48 83.916 96.269 C 0.0 **** 0.0
12717 H 75.077 82.905 96.202 H 0.0 **** 0.0
12718 H 74.911 84.485 97.005 H 0.0 **** 0.0
12719 H 75.404 84.401 95.296 H 0.0 **** 0.0
12720 H 76.526 83.871 96.572 H 0.0 **** 0.0
12721 C 33.523 16.822 41.459 C 0.0 **** 0.0
12722 H 33.505 16.775 40.37 H 0.0 **** 0.0
12723 H 34.172 16.036 41.846 H 0.0 **** 0.0
12724 H 32.513 16.682 41.845 H 0.0 **** 0.0
12725 H 33.901 17.794 41.775 H 0.0 **** 0.0
12726 C 34.606 82.863 63.61 C 0.0 **** 0.0
12727 H 35.006 82.634 64.598 H 0.0 **** 0.0
12728 H 33.744 83.522 63.711 H 0.0 **** 0.0
12729 H 34.302 81.939 63.119 H 0.0 **** 0.0
12730 H 35.373 83.356 63.013 H 0.0 **** 0.0
12731 C 54.524 40.458 79.892 C 0.0 **** 0.0
12732 H 54.868 40.0 80.82 H 0.0 **** 0.0
12733 H 54.337 41.519 80.059 H 0.0 **** 0.0
12734 H 53.604 39.972 79.567 H 0.0 **** 0.0
12735 H 55.288 40.339 79.124 H 0.0 **** 0.0
12736 C 21.633 64.957 20.661 C 0.0 **** 0.0
12737 H 21.905 65.363 21.635 H 0.0 **** 0.0
12738 H 22.444 65.135 19.955 H 0.0 **** 0.0
12739 H 20.726 65.445 20.304 H 0.0 **** 0.0
12740 H 21.457 63.885 20.75 H 0.0 **** 0.0
12741 C 57.919 72.347 10.407 C 0.0 **** 0.0
12742 H 58.047 72.415 11.487 H 0.0 **** 0.0
12743 H 57.056 72.942 10.106 H 0.0 **** 0.0
12744 H 57.76 71.307 10.125 H 0.0 **** 0.0
12745 H 58.813 72.726 9.911 H 0.0 **** 0.0
12746 C 7.364 47.459 89.923 C 0.0 **** 0.0
12747 H 7.831 47.401 90.906 H 0.0 **** 0.0
12748 H 6.515 48.142 89.964 H 0.0 **** 0.0
12749 H 7.021 46.469 89.625 H 0.0 **** 0.0
12750 H 8.09 47.825 89.198 H 0.0 **** 0.0
12751 C 97.581 68.516 29.468 C 0.0 **** 0.0
12752 H 96.86 68.49 28.651 H 0.0 **** 0.0
12753 H 98.536 68.892 29.098 H 0.0 **** 0.0
12754 H 97.715 67.51 29.865 H 0.0 **** 0.0
12755 H 97.213 69.173 30.256 H 0.0 **** 0.0
12756 C 21.497 8.992 79.954 C 0.0 **** 0.0
12757 H 20.481 8.621 80.088 H 0.0 **** 0.0
12758 H 21.834 9.469 80.875 H 0.0 **** 0.0
12759 H 21.514 9.718 79.141 H 0.0 **** 0.0
12760 H 22.159 8.16 79.713 H 0.0 **** 0.0
12761 C 19.055 51.619 92.015 C 0.0 **** 0.0
12762 H 19.455 52.202 92.845 H 0.0 **** 0.0
12763 H 17.976 51.515 92.131 H 0.0 **** 0.0
12764 H 19.517 50.632 92.008 H 0.0 **** 0.0
12765 H 19.272 52.128 91.076 H 0.0 **** 0.0
12766 C 68.717 42.442 45.217 C 0.0 **** 0.0
12767 H 68.313 43.355 45.654 H 0.0 **** 0.0
12768 H 68.377 41.582 45.796 H 0.0 **** 0.0
12769 H 69.806 42.483 45.231 H 0.0 **** 0.0
12770 H 68.37 42.347 44.188 H 0.0 **** 0.0
12771 C 6.438 72.063 64.907 C 0.0 **** 0.0
12772 H 6.02 72.197 65.905 H 0.0 **** 0.0
12773 H 7.037 72.936 64.644 H 0.0 **** 0.0
12774 H 5.628 71.948 64.187 H 0.0 **** 0.0
12775 H 7.066 71.173 64.893 H 0.0 **** 0.0
12776 C 44.967 50.446 15.066 C 0.0 **** 0.0
12777 H 44.414 49.78 15.728 H 0.0 **** 0.0
12778 H 45.888 50.763 15.557 H 0.0 **** 0.0
12779 H 44.357 51.319 14.837 H 0.0 **** 0.0
12780 H 45.21 49.92 14.143 H 0.0 **** 0.0
12781 C 14.823 90.034 26.08 C 0.0 **** 0.0
12782 H 15.271 89.583 25.195 H 0.0 **** 0.0
12783 H 14.721 89.279 26.86 H 0.0 **** 0.0
12784 H 13.839 90.43 25.827 H 0.0 **** 0.0
12785 H 15.46 90.843 26.438 H 0.0 **** 0.0
12786 C 2.527 91.173 83.394 C 0.0 **** 0.0
12787 H 2.936 91.425 84.372 H 0.0 **** 0.0
12788 H 3.189 91.551 82.615 H 0.0 **** 0.0
12789 H 1.542 91.626 83.285 H 0.0 **** 0.0
12790 H 2.44 90.09 83.305 H 0.0 **** 0.0
12791 C 12.212 28.812 29.508 C 0.0 **** 0.0
12792 H 11.673 28.437 30.378 H 0.0 **** 0.0
12793 H 11.736 29.726 29.152 H 0.0 **** 0.0
12794 H 12.195 28.061 28.718 H 0.0 **** 0.0
12795 H 13.245 29.024 29.785 H 0.0 **** 0.0
12796 C 18.18 67.107 63.339 C 0.0 **** 0.0
12797 H 17.894 67.077 62.288 H 0.0 **** 0.0
12798 H 19.082 67.708 63.453 H 0.0 **** 0.0
12799 H 18.371 66.094 63.692 H 0.0 **** 0.0
12800 H 17.372 67.549 63.922 H 0.0 **** 0.0
12801 C 14.229 7.18 39.461 C 0.0 **** 0.0
12802 H 13.373 6.771 39.996 H 0.0 **** 0.0
12803 H 13.894 7.617 38.52 H 0.0 **** 0.0
12804 H 14.945 6.383 39.257 H 0.0 **** 0.0
12805 H 14.705 7.949 40.07 H 0.0 **** 0.0
12806 C 56.81 7.348 9.986 C 0.0 **** 0.0
12807 H 55.84 7.288 10.481 H 0.0 **** 0.0
12808 H 57.206 6.343 9.841 H 0.0 **** 0.0
12809 H 57.498 7.925 10.604 H 0.0 **** 0.0
12810 H 56.693 7.836 9.019 H 0.0 **** 0.0
12811 C 26.486 76.011 92.445 C 0.0 **** 0.0
12812 H 26.224 77.051 92.25 H 0.0 **** 0.0
12813 H 26.279 75.774 93.489 H 0.0 **** 0.0
12814 H 27.546 75.86 92.241 H 0.0 **** 0.0
12815 H 25.894 75.361 91.801 H 0.0 **** 0.0
12816 C 23.027 42.323 39.894 C 0.0 **** 0.0
12817 H 23.35 41.808 40.798 H 0.0 **** 0.0
12818 H 23.262 41.71 39.023 H 0.0 **** 0.0
12819 H 23.544 43.279 39.816 H 0.0 **** 0.0
12820 H 21.951 42.494 39.939 H 0.0 **** 0.0
12821 C 18.994 81.136 83.428 C 0.0 **** 0.0
12822 H 18.05 80.955 82.916 H 0.0 **** 0.0
12823 H 19.113 82.205 83.604 H 0.0 **** 0.0
12824 H 19.817 80.776 82.811 H 0.0 **** 0.0
12825 H 18.997 80.608 84.382 H 0.0 **** 0.0
12826 C 65.494 95.306 62.529 C 0.0 **** 0.0
12827 H 66.119 94.471 62.21 H 0.0 **** 0.0
12828 H 64.459 95.113 62.245 H 0.0 **** 0.0
12829 H 65.838 96.221 62.049 H 0.0 **** 0.0
12830 H 65.559 95.416 63.611 H 0.0 **** 0.0
12831 C 97.631 17.037 82.842 C 0.0 **** 0.0
12832 H 97.648 17.005 83.931 H 0.0 **** 0.0
12833 H 98.163 17.925 82.497 H 0.0 **** 0.0
12834 H 96.598 17.074 82.495 H 0.0 **** 0.0
12835 H 98.116 16.146 82.444 H 0.0 **** 0.0
12836 C 74.954 69.963 6.259 C 0.0 **** 0.0
12837 H 74.603 69.262 5.501 H 0.0 **** 0.0
12838 H 75.607 69.443 6.959 H 0.0 **** 0.0
12839 H 74.1 70.375 6.796 H 0.0 **** 0.0
12840 H 75.505 70.771 5.778 H 0.0 **** 0.0
12841 C 34.445 1.708 82.753 C 0.0 **** 0.0
12842 H 34.589 2.53 83.455 H 0.0 **** 0.0
12843 H 34.954 1.936 81.817 H 0.0 **** 0.0
12844 H 33.38 1.574 82.565 H 0.0 **** 0.0
12845 H 34.856 0.793 83.178 H 0.0 **** 0.0
12846 C 83.499 46.553 85.674 C 0.0 **** 0.0
12847 H 83.236 46.474 84.619 H 0.0 **** 0.0
12848 H 82.592 46.666 86.267 H 0.0 **** 0.0
12849 H 84.142 47.421 85.823 H 0.0 **** 0.0
12850 H 84.028 45.652 85.985 H 0.0 **** 0.0
12851 C 38.252 95.736 67.831 C 0.0 **** 0.0
12852 H 39.074 95.919 68.522 H 0.0 **** 0.0
12853 H 38.18 94.667 67.627 H 0.0 **** 0.0
12854 H 38.433 96.272 66.9 H 0.0 **** 0.0
12855 H 37.32 96.084 68.276 H 0.0 **** 0.0
12856 C 3.055 15.823 54.558 C 0.0 **** 0.0
12857 H 4.085 15.743 54.212 H 0.0 **** 0.0
12858 H 2.535 16.587 53.979 H 0.0 **** 0.0
12859 H 3.046 16.098 55.612 H 0.0 **** 0.0
12860 H 2.553 14.864 54.428 H 0.0 **** 0.0
12861 C 75.724 52.571 54.988 C 0.0 **** 0.0
12862 H 76.706 52.891 55.336 H 0.0 **** 0.0
12863 H 75.289 53.351 54.362 H 0.0 **** 0.0
12864 H 75.076 52.391 55.846 H 0.0 **** 0.0
12865 H 75.825 51.653 54.409 H 0.0 **** 0.0
12866 C 7.709 59.73 47.631 C 0.0 **** 0.0
12867 H 8.165 59.352 46.717 H 0.0 **** 0.0
12868 H 8.339 59.477 48.484 H 0.0 **** 0.0
12869 H 6.725 59.279 47.759 H 0.0 **** 0.0
12870 H 7.606 60.814 47.564 H 0.0 **** 0.0
12871 C 44.943 66.761 13.886 C 0.0 **** 0.0
12872 H 44.754 66.463 14.917 H 0.0 **** 0.0
12873 H 44.052 67.236 13.476 H 0.0 **** 0.0
12874 H 45.192 65.881 13.293 H 0.0 **** 0.0
12875 H 45.776 67.464 13.858 H 0.0 **** 0.0
12876 C 87.149 84.34 71.745 C 0.0 **** 0.0
12877 H 87.732 84.704 72.591 H 0.0 **** 0.0
12878 H 86.192 84.861 71.714 H 0.0 **** 0.0
12879 H 86.977 83.27 71.856 H 0.0 **** 0.0
12880 H 87.695 84.526 70.82 H 0.0 **** 0.0
12881 C 20.153 77.93 51.896 C 0.0 **** 0.0
12882 H 19.454 77.33 51.314 H 0.0 **** 0.0
12883 H 20.968 77.297 52.248 H 0.0 **** 0.0
12884 H 19.635 78.364 52.751 H 0.0 **** 0.0
12885 H 20.555 78.727 51.272 H 0.0 **** 0.0
12886 C 8.7 22.971 49.565 C 0.0 **** 0.0
12887 H 9.309 23.873 49.639 H 0.0 **** 0.0
12888 H 8.314 22.712 50.551 H 0.0 **** 0.0
12889 H 9.311 22.152 49.186 H 0.0 **** 0.0
12890 H 7.868 23.15 48.884 H 0.0 **** 0.0
12891 C 86.169 87.386 74.02 C 0.0 **** 0.0
12892 H 85.302 87.888 73.592 H 0.0 **** 0.0
12893 H 87.049 87.599 73.412 H 0.0 **** 0.0
12894 H 85.993 86.311 74.04 H 0.0 **** 0.0
12895 H 86.333 87.746 75.036 H 0.0 **** 0.0
12896 C 9.425 53.165 13.393 C 0.0 **** 0.0
12897 H 9.633 52.268 13.975 H 0.0 **** 0.0
12898 H 8.444 53.076 12.925 H 0.0 **** 0.0
12899 H 10.186 53.282 12.621 H 0.0 **** 0.0
12900 H 9.437 54.035 14.049 H 0.0 **** 0.0
12901 C 29.035 20.963 30.19 C 0.0 **** 0.0
12902 H 29.446 20.204 29.524 H 0.0 **** 0.0
12903 H 28.308 21.567 29.646 H 0.0 **** 0.0
12904 H 29.839 21.602 30.553 H 0.0 **** 0.0
12905 H 28.546 20.478 31.034 H 0.0 **** 0.0
12906 C 4.676 81.251 92.249 C 0.0 **** 0.0
12907 H 4.567 81.846 91.342 H 0.0 **** 0.0
12908 H 4.211 80.276 92.102 H 0.0 **** 0.0
12909 H 4.191 81.764 93.08 H 0.0 **** 0.0
12910 H 5.735 81.12 92.471 H 0.0 **** 0.0
12911 C 50.755 11.809 20.034 C 0.0 **** 0.0
12912 H 50.817 11.447 21.06 H 0.0 **** 0.0
12913 H 51.377 11.185 19.391 H 0.0 **** 0.0
12914 H 51.106 12.84 19.991 H 0.0 **** 0.0
12915 H 49.72 11.763 19.695 H 0.0 **** 0.0
12916 C 51.666 48.391 65.116 C 0.0 **** 0.0
12917 H 51.543 47.855 64.174 H 0.0 **** 0.0
12918 H 50.775 48.256 65.729 H 0.0 **** 0.0
12919 H 51.812 49.452 64.913 H 0.0 **** 0.0
12920 H 52.535 47.999 65.645 H 0.0 **** 0.0
12921 C 23.376 53.132 22.569 C 0.0 **** 0.0
12922 H 22.829 52.346 23.09 H 0.0 **** 0.0
12923 H 23.815 53.813 23.299 H 0.0 **** 0.0
12924 H 22.692 53.682 21.923 H 0.0 **** 0.0
12925 H 24.166 52.686 21.966 H 0.0 **** 0.0
12926 C 60.835 6.751 79.751 C 0.0 **** 0.0
12927 H 59.753 6.778 79.626 H 0.0 **** 0.0
12928 H 61.096 7.124 80.741 H 0.0 **** 0.0
12929 H 61.304 7.376 78.991 H 0.0 **** 0.0
12930 H 61.187 5.725 79.645 H 0.0 **** 0.0
12931 C 64.224 87.285 52.109 C 0.0 **** 0.0
12932 H 65.291 87.214 52.318 H 0.0 **** 0.0
12933 H 64.03 88.17 51.502 H 0.0 **** 0.0
12934 H 63.674 87.36 53.047 H 0.0 **** 0.0
12935 H 63.9 86.395 51.569 H 0.0 **** 0.0
12936 C 92.106 41.346 56.365 C 0.0 **** 0.0
12937 H 92.109 41.342 55.275 H 0.0 **** 0.0
12938 H 91.077 41.373 56.725 H 0.0 **** 0.0
12939 H 92.641 42.224 56.726 H 0.0 **** 0.0
12940 H 92.596 40.445 56.733 H 0.0 **** 0.0
12941 C 36.589 93.41 49.853 C 0.0 **** 0.0
12942 H 35.737 93.005 49.308 H 0.0 **** 0.0
12943 H 36.238 93.908 50.757 H 0.0 **** 0.0
12944 H 37.115 94.127 49.223 H 0.0 **** 0.0
12945 H 37.266 92.599 50.124 H 0.0 **** 0.0
12946 C 62.59 35.156 33.685 C 0.0 **** 0.0
12947 H 63.028 36.146 33.81 H 0.0 **** 0.0
12948 H 63.06 34.461 34.381 H 0.0 **** 0.0
12949 H 62.752 34.813 32.663 H 0.0 **** 0.0
12950 H 61.52 35.204 33.887 H 0.0 **** 0.0
12951 C 90.621 94.982 33.09 C 0.0 **** 0.0
12952 H 90.563 95.005 32.001 H 0.0 **** 0.0
12953 H 90.401 95.974 33.486 H 0.0 **** 0.0
12954 H 91.624 94.684 33.393 H 0.0 **** 0.0
12955 H 89.896 94.266 33.477 H 0.0 **** 0.0
12956 C 88.142 31.654 6.091 C 0.0 **** 0.0
12957 H 88.382 31.859 5.048 H 0.0 **** 0.0
12958 H 88.133 32.589 6.652 H 0.0 **** 0.0
12959 H 88.892 30.985 6.512 H 0.0 **** 0.0
12960 H 87.161 31.183 6.152 H 0.0 **** 0.0
12961 C 33.845 40.839 51.521 C 0.0 **** 0.0
12962 H 34.588 40.429 52.205 H 0.0 **** 0.0
12963 H 33.659 41.884 51.77 H 0.0 **** 0.0
12964 H 32.917 40.273 51.612 H 0.0 **** 0.0
12965 H 34.215 40.769 50.498 H 0.0 **** 0.0
12966 C 52.256 17.509 36.755 C 0.0 **** 0.0
12967 H 52.31 16.56 37.288 H 0.0 **** 0.0
12968 H 52.803 18.27 37.311 H 0.0 **** 0.0
12969 H 51.213 17.81 36.655 H 0.0 **** 0.0
12970 H 52.697 17.394 35.764 H 0.0 **** 0.0
12971 C 70.228 24.29 23.303 C 0.0 **** 0.0
12972 H 70.999 24.041 24.032 H 0.0 **** 0.0
12973 H 69.259 23.949 23.668 H 0.0 **** 0.0
12974 H 70.452 23.801 22.355 H 0.0 **** 0.0
12975 H 70.202 25.37 23.157 H 0.0 **** 0.0
12976 C 44.99 77.215 28.813 C 0.0 **** 0.0
12977 H 44.985 77.96 28.017 H 0.0 **** 0.0
12978 H 45.994 77.137 29.231 H 0.0 **** 0.0
12979 H 44.689 76.249 28.407 H 0.0 **** 0.0
12980 H 44.292 77.514 29.595 H 0.0 **** 0.0
12981 C 24.567 67.37 3.418 C 0.0 **** 0.0
12982 H 24.933 68.358 3.698 H 0.0 **** 0.0
12983 H 23.979 66.955 4.237 H 0.0 **** 0.0
12984 H 25.413 66.716 3.208 H 0.0 **** 0.0
12985 H 23.943 67.454 2.528 H 0.0 **** 0.0
12986 C 46.083 86.793 12.408 C 0.0 **** 0.0
12987 H 45.171 86.684 12.996 H 0.0 **** 0.0
12988 H 45.945 86.325 11.434 H 0.0 **** 0.0
12989 H 46.91 86.312 12.93 H 0.0 **** 0.0
12990 H 46.304 87.852 12.275 H 0.0 **** 0.0
12991 C 42.991 44.749 18.898 C 0.0 **** 0.0
12992 H 43.206 44.754 19.967 H 0.0 **** 0.0
12993 H 41.913 44.701 18.745 H 0.0 **** 0.0
12994 H 43.463 43.881 18.438 H 0.0 **** 0.0
12995 H 43.383 45.659 18.445 H 0.0 **** 0.0
12996 C 19.563 57.422 12.172 C 0.0 **** 0.0
12997 H 18.988 57.142 13.055 H 0.0 **** 0.0
12998 H 20.522 57.837 12.481 H 0.0 **** 0.0
12999 H 19.011 58.167 11.6 H 0.0 **** 0.0
13000 H 19.73 56.539 11.554 H 0.0 **** 0.0
13001 C 95.557 39.605 51.824 C 0.0 **** 0.0
13002 H 95.65 39.363 50.766 H 0.0 **** 0.0
13003 H 95.062 40.57 51.934 H 0.0 **** 0.0
13004 H 96.549 39.652 52.274 H 0.0 **** 0.0
13005 H 94.968 38.835 52.322 H 0.0 **** 0.0
13006 C 16.584 31.989 68.696 C 0.0 **** 0.0
13007 H 16.383 33.005 68.356 H 0.0 **** 0.0
13008 H 17.31 32.015 69.509 H 0.0 **** 0.0
13009 H 16.985 31.403 67.869 H 0.0 **** 0.0
13010 H 15.659 31.534 69.049 H 0.0 **** 0.0
13011 C 25.455 43.271 13.887 C 0.0 **** 0.0
13012 H 25.435 43.378 14.972 H 0.0 **** 0.0
13013 H 26.481 43.109 13.557 H 0.0 **** 0.0
13014 H 25.062 44.177 13.425 H 0.0 **** 0.0
13015 H 24.84 42.419 13.595 H 0.0 **** 0.0
13016 C 22.272 7.081 48.838 C 0.0 **** 0.0
13017 H 22.774 6.864 49.781 H 0.0 **** 0.0
13018 H 22.959 6.895 48.011 H 0.0 **** 0.0
13019 H 21.96 8.125 48.824 H 0.0 **** 0.0
13020 H 21.398 6.438 48.736 H 0.0 **** 0.0
13021 C 92.825 95.503 67.901 C 0.0 **** 0.0
13022 H 92.823 95.628 68.984 H 0.0 **** 0.0
13023 H 93.399 94.614 67.639 H 0.0 **** 0.0
13024 H 93.276 96.379 67.436 H 0.0 **** 0.0
13025 H 91.8 95.391 67.547 H 0.0 **** 0.0
13026 C 85.722 86.691 14.232 C 0.0 **** 0.0
13027 H 85.578 85.891 14.957 H 0.0 **** 0.0
13028 H 84.821 86.799 13.627 H 0.0 **** 0.0
13029 H 86.567 86.45 13.587 H 0.0 **** 0.0
13030 H 85.921 87.626 14.757 H 0.0 **** 0.0
13031 C 56.681 87.789 73.607 C 0.0 **** 0.0
13032 H 57.292 88.316 72.875 H 0.0 **** 0.0
13033 H 56.897 86.721 73.559 H 0.0 **** 0.0
13034 H 55.626 87.957 73.387 H 0.0 **** 0.0
13035 H 56.908 88.162 74.606 H 0.0 **** 0.0
13036 C 33.291 68.631 2.555 C 0.0 **** 0.0
13037 H 33.943 69.478 2.341 H 0.0 **** 0.0
13038 H 33.896 67.735 2.7 H 0.0 **** 0.0
13039 H 32.608 68.478 1.72 H 0.0 **** 0.0
13040 H 32.719 68.833 3.461 H 0.0 **** 0.0
13041 C 10.638 39.151 82.735 C 0.0 **** 0.0
13042 H 10.273 38.123 82.724 H 0.0 **** 0.0
13043 H 11.726 39.149 82.804 H 0.0 **** 0.0
13044 H 10.22 39.675 83.595 H 0.0 **** 0.0
13045 H 10.332 39.654 81.818 H 0.0 **** 0.0
13046 C 29.607 23.803 27.606 C 0.0 **** 0.0
13047 H 30.46 23.86 28.283 H 0.0 **** 0.0
13048 H 28.693 23.667 28.183 H 0.0 **** 0.0
13049 H 29.738 22.96 26.927 H 0.0 **** 0.0
13050 H 29.539 24.726 27.03 H 0.0 **** 0.0
13051 C 26.598 26.018 45.078 C 0.0 **** 0.0
13052 H 26.983 25.961 44.06 H 0.0 **** 0.0
13053 H 25.67 26.59 45.083 H 0.0 **** 0.0
13054 H 27.332 26.51 45.717 H 0.0 **** 0.0
13055 H 26.408 25.012 45.452 H 0.0 **** 0.0
13056 C 92.822 91.68 31.435 C 0.0 **** 0.0
13057 H 93.024 91.687 30.364 H 0.0 **** 0.0
13058 H 93.26 90.787 31.881 H 0.0 **** 0.0
13059 H 91.744 91.679 31.6 H 0.0 **** 0.0
13060 H 93.258 92.568 31.893 H 0.0 **** 0.0
13061 C 80.932 82.264 6.471 C 0.0 **** 0.0
13062 H 81.295 82.305 7.497 H 0.0 **** 0.0
13063 H 79.926 82.682 6.424 H 0.0 **** 0.0
13064 H 80.91 81.227 6.135 H 0.0 **** 0.0
13065 H 81.596 82.84 5.827 H 0.0 **** 0.0
13066 C 67.806 37.319 31.122 C 0.0 **** 0.0
13067 H 66.961 37.907 30.763 H 0.0 **** 0.0
13068 H 68.736 37.821 30.855 H 0.0 **** 0.0
13069 H 67.782 36.33 30.663 H 0.0 **** 0.0
13070 H 67.744 37.219 32.205 H 0.0 **** 0.0
13071 C 53.206 4.944 65.274 C 0.0 **** 0.0
13072 H 52.999 5.062 64.211 H 0.0 **** 0.0
13073 H 52.267 4.874 65.822 H 0.0 **** 0.0
13074 H 53.773 5.804 65.631 H 0.0 **** 0.0
13075 H 53.787 4.035 65.431 H 0.0 **** 0.0
13076 C 19.641 53.422 62.271 C 0.0 **** 0.0
13077 H 20.042 52.975 63.181 H 0.0 **** 0.0
13078 H 19.971 52.844 61.407 H 0.0 **** 0.0
13079 H 20.001 54.447 62.182 H 0.0 **** 0.0
13080 H 18.552 53.421 62.315 H 0.0 **** 0.0
13081 C 52.067 91.916 11.263 C 0.0 **** 0.0
13082 H 52.449 91.534 12.21 H 0.0 **** 0.0
13083 H 51.355 92.719 11.457 H 0.0 **** 0.0
13084 H 51.569 91.111 10.722 H 0.0 **** 0.0
13085 H 52.894 92.299 10.666 H 0.0 **** 0.0
13086 C 38.506 36.711 14.187 C 0.0 **** 0.0
13087 H 38.732 35.99 14.972 H 0.0 **** 0.0
13088 H 39.422 36.964 13.652 H 0.0 **** 0.0
13089 H 38.084 37.612 14.632 H 0.0 **** 0.0
13090 H 37.787 36.278 13.492 H 0.0 **** 0.0
13091 C 91.317 44.027 31.973 C 0.0 **** 0.0
13092 H 91.342 43.59 32.971 H 0.0 **** 0.0
13093 H 90.327 43.885 31.538 H 0.0 **** 0.0
13094 H 92.063 43.54 31.345 H 0.0 **** 0.0
13095 H 91.536 45.093 32.038 H 0.0 **** 0.0
13096 C 87.152 14.886 81.144 C 0.0 **** 0.0
13097 H 87.35 14.552 82.163 H 0.0 **** 0.0
13098 H 86.084 15.062 81.021 H 0.0 **** 0.0
13099 H 87.478 14.118 80.442 H 0.0 **** 0.0
13100 H 87.698 15.809 80.952 H 0.0 **** 0.0
13101 C 51.32 68.073 66.45 C 0.0 **** 0.0
13102 H 51.313 68.194 67.533 H 0.0 **** 0.0
13103 H 50.484 68.623 66.017 H 0.0 **** 0.0
13104 H 51.227 67.016 66.202 H 0.0 **** 0.0
13105 H 52.257 68.46 66.047 H 0.0 **** 0.0
13106 C 27.505 60.794 12.154 C 0.0 **** 0.0
13107 H 26.941 61.616 12.594 H 0.0 **** 0.0
13108 H 28.57 60.951 12.326 H 0.0 **** 0.0
13109 H 27.312 60.754 11.082 H 0.0 **** 0.0
13110 H 27.197 59.855 12.614 H 0.0 **** 0.0
13111 C 52.764 54.425 10.388 C 0.0 **** 0.0
13112 H 52.537 54.34 11.451 H 0.0 **** 0.0
13113 H 51.835 54.494 9.822 H 0.0 **** 0.0
13114 H 53.323 53.547 10.065 H 0.0 **** 0.0
13115 H 53.363 55.32 10.216 H 0.0 **** 0.0
13116 C 51.113 27.933 5.284 C 0.0 **** 0.0
13117 H 52.036 27.799 4.72 H 0.0 **** 0.0
13118 H 50.571 26.988 5.323 H 0.0 **** 0.0
13119 H 50.496 28.687 4.795 H 0.0 **** 0.0
13120 H 51.351 28.258 6.297 H 0.0 **** 0.0
13121 C 8.917 40.924 55.148 C 0.0 **** 0.0
13122 H 9.373 40.143 55.756 H 0.0 **** 0.0
13123 H 8.657 41.772 55.782 H 0.0 **** 0.0
13124 H 8.016 40.534 54.674 H 0.0 **** 0.0
13125 H 9.621 41.245 54.381 H 0.0 **** 0.0
13126 C 24.379 92.244 2.207 C 0.0 **** 0.0
13127 H 24.45 91.427 1.489 H 0.0 **** 0.0
13128 H 23.586 92.927 1.902 H 0.0 **** 0.0
13129 H 25.327 92.78 2.243 H 0.0 **** 0.0
13130 H 24.152 91.841 3.195 H 0.0 **** 0.0
13131 C 3.231 3.508 25.457 C 0.0 **** 0.0
13132 H 3.344 4.571 25.245 H 0.0 **** 0.0
13133 H 2.794 3.379 26.448 H 0.0 **** 0.0
13134 H 4.209 3.026 25.426 H 0.0 **** 0.0
13135 H 2.58 3.055 24.71 H 0.0 **** 0.0
13136 C 62.147 41.074 75.168 C 0.0 **** 0.0
13137 H 62.431 40.902 74.13 H 0.0 **** 0.0
13138 H 61.79 42.097 75.282 H 0.0 **** 0.0
13139 H 63.013 40.917 75.812 H 0.0 **** 0.0
13140 H 61.356 40.379 75.448 H 0.0 **** 0.0
13141 C 71.473 62.311 31.36 C 0.0 **** 0.0
13142 H 72.49 62.625 31.595 H 0.0 **** 0.0
13143 H 71.22 62.628 30.348 H 0.0 **** 0.0
13144 H 70.78 62.766 32.068 H 0.0 **** 0.0
13145 H 71.403 61.225 31.429 H 0.0 **** 0.0
13146 C 98.202 7.595 39.97 C 0.0 **** 0.0
13147 H 98.512 7.946 40.955 H 0.0 **** 0.0
13148 H 97.303 6.985 40.069 H 0.0 **** 0.0
13149 H 99.0 6.998 39.53 H 0.0 **** 0.0
13150 H 97.991 8.451 39.329 H 0.0 **** 0.0
13151 C 5.706 49.543 74.976 C 0.0 **** 0.0
13152 H 6.013 49.564 73.93 H 0.0 **** 0.0
13153 H 5.754 48.519 75.347 H 0.0 **** 0.0
13154 H 4.685 49.913 75.062 H 0.0 **** 0.0
13155 H 6.373 50.174 75.563 H 0.0 **** 0.0
13156 C 63.351 60.721 39.618 C 0.0 **** 0.0
13157 H 62.28 60.596 39.778 H 0.0 **** 0.0
13158 H 63.837 59.745 39.641 H 0.0 **** 0.0
13159 H 63.764 61.352 40.404 H 0.0 **** 0.0
13160 H 63.521 61.189 38.649 H 0.0 **** 0.0
13161 C 52.874 16.761 69.371 C 0.0 **** 0.0
13162 H 53.501 17.047 68.527 H 0.0 **** 0.0
13163 H 51.878 16.502 69.013 H 0.0 **** 0.0
13164 H 52.803 17.595 70.07 H 0.0 **** 0.0
13165 H 53.314 15.901 69.875 H 0.0 **** 0.0
13166 C 69.556 72.712 78.533 C 0.0 **** 0.0
13167 H 69.109 71.958 79.181 H 0.0 **** 0.0
13168 H 69.737 73.622 79.105 H 0.0 **** 0.0
13169 H 68.877 72.929 77.708 H 0.0 **** 0.0
13170 H 70.499 72.337 78.137 H 0.0 **** 0.0
13171 C 16.238 69.937 25.858 C 0.0 **** 0.0
13172 H 16.339 69.875 24.775 H 0.0 **** 0.0
13173 H 15.568 69.151 26.206 H 0.0 **** 0.0
13174 H 15.828 70.911 26.129 H 0.0 **** 0.0
13175 H 17.216 69.813 26.323 H 0.0 **** 0.0
13176 C 77.883 53.796 1.501 C 0.0 **** 0.0
13177 H 77.776 53.685 2.58 H 0.0 **** 0.0
13178 H 78.112 54.836 1.264 H 0.0 **** 0.0
13179 H 76.952 53.509 1.012 H 0.0 **** 0.0
13180 H 78.691 53.156 1.147 H 0.0 **** 0.0
13181 C 8.886 48.271 36.94 C 0.0 **** 0.0
13182 H 9.28 48.62 37.894 H 0.0 **** 0.0
13183 H 9.166 47.228 36.79 H 0.0 **** 0.0
13184 H 9.299 48.878 36.133 H 0.0 **** 0.0
13185 H 7.8 48.36 36.941 H 0.0 **** 0.0
13186 C 70.771 5.116 41.46 C 0.0 **** 0.0
13187 H 70.209 5.273 42.38 H 0.0 **** 0.0
13188 H 70.103 4.742 40.684 H 0.0 **** 0.0
13189 H 71.564 4.39 41.638 H 0.0 **** 0.0
13190 H 71.21 6.06 41.137 H 0.0 **** 0.0
13191 C 43.567 95.265 56.45 C 0.0 **** 0.0
13192 H 42.755 95.887 56.827 H 0.0 **** 0.0
13193 H 43.662 94.374 57.071 H 0.0 **** 0.0
13194 H 44.5 95.829 56.479 H 0.0 **** 0.0
13195 H 43.353 94.972 55.422 H 0.0 **** 0.0
13196 C 95.857 8.021 31.244 C 0.0 **** 0.0
13197 H 94.965 8.505 30.846 H 0.0 **** 0.0
13198 H 95.625 6.987 31.502 H 0.0 **** 0.0
13199 H 96.19 8.552 32.136 H 0.0 **** 0.0
13200 H 96.646 8.04 30.493 H 0.0 **** 0.0
13201 C 38.794 69.55 91.377 C 0.0 **** 0.0
13202 H 38.518 68.497 91.322 H 0.0 **** 0.0
13203 H 39.562 69.764 90.634 H 0.0 **** 0.0
13204 H 39.178 69.773 92.373 H 0.0 **** 0.0
13205 H 37.916 70.166 91.181 H 0.0 **** 0.0
13206 C 71.111 56.717 17.816 C 0.0 **** 0.0
13207 H 71.094 56.432 16.764 H 0.0 **** 0.0
13208 H 71.589 57.692 17.92 H 0.0 **** 0.0
13209 H 71.672 55.975 18.384 H 0.0 **** 0.0
13210 H 70.091 56.77 18.195 H 0.0 **** 0.0
13211 C 88.084 97.093 28.413 C 0.0 **** 0.0
13212 H 87.255 96.388 28.354 H 0.0 **** 0.0
13213 H 87.989 97.834 27.62 H 0.0 **** 0.0
13214 H 89.026 96.556 28.297 H 0.0 **** 0.0
13215 H 88.068 97.592 29.382 H 0.0 **** 0.0
13216 C 49.057 16.126 42.226 C 0.0 **** 0.0
13217 H 49.631 16.764 42.899 H 0.0 **** 0.0
13218 H 49.463 15.114 42.253 H 0.0 **** 0.0
13219 H 49.122 16.517 41.211 H 0.0 **** 0.0
13220 H 48.015 16.108 42.544 H 0.0 **** 0.0
13221 C 71.266 4.594 72.38 C 0.0 **** 0.0
13222 H 71.522 5.589 72.744 H 0.0 **** 0.0
13223 H 70.212 4.396 72.575 H 0.0 **** 0.0
13224 H 71.877 3.851 72.895 H 0.0 **** 0.0
13225 H 71.454 4.539 71.308 H 0.0 **** 0.0
13226 C 61.006 36.26 30.257 C 0.0 **** 0.0
13227 H 61.141 35.984 31.303 H 0.0 **** 0.0
13228 H 60.024 35.928 29.918 H 0.0 **** 0.0
13229 H 61.779 35.786 29.654 H 0.0 **** 0.0
13230 H 61.078 37.343 30.155 H 0.0 **** 0.0
13231 C 54.902 81.94 50.091 C 0.0 **** 0.0
13232 H 54.784 82.166 49.032 H 0.0 **** 0.0
13233 H 55.37 80.962 50.204 H 0.0 **** 0.0
13234 H 53.924 81.933 50.572 H 0.0 **** 0.0
13235 H 55.53 82.7 50.557 H 0.0 **** 0.0
13236 C 59.625 13.737 9.336 C 0.0 **** 0.0
13237 H 59.173 14.624 8.893 H 0.0 **** 0.0
13238 H 60.636 13.613 8.949 H 0.0 **** 0.0
13239 H 59.028 12.86 9.084 H 0.0 **** 0.0
13240 H 59.662 13.851 10.42 H 0.0 **** 0.0
13241 C 32.778 58.047 28.24 C 0.0 **** 0.0
13242 H 32.965 57.694 29.254 H 0.0 **** 0.0
13243 H 31.863 58.64 28.225 H 0.0 **** 0.0
13244 H 32.668 57.192 27.573 H 0.0 **** 0.0
13245 H 33.615 58.661 27.909 H 0.0 **** 0.0
13246 C 50.972 93.436 35.135 C 0.0 **** 0.0
13247 H 51.077 93.45 36.22 H 0.0 **** 0.0
13248 H 51.025 94.456 34.753 H 0.0 **** 0.0
13249 H 50.011 92.998 34.869 H 0.0 **** 0.0
13250 H 51.776 92.842 34.701 H 0.0 **** 0.0
13251 C 90.05 31.235 31.768 C 0.0 **** 0.0
13252 H 90.11 30.572 32.632 H 0.0 **** 0.0
13253 H 89.446 32.107 32.022 H 0.0 **** 0.0
13254 H 89.591 30.704 30.935 H 0.0 **** 0.0
13255 H 91.053 31.556 31.487 H 0.0 **** 0.0
13256 C 59.847 6.904 7.319 C 0.0 **** 0.0
13257 H 59.128 7.532 6.792 H 0.0 **** 0.0
13258 H 59.495 6.721 8.334 H 0.0 **** 0.0
13259 H 60.812 7.41 7.355 H 0.0 **** 0.0
13260 H 59.954 5.955 6.794 H 0.0 **** 0.0
13261 C 14.855 31.356 38.486 C 0.0 **** 0.0
13262 H 14.726 32.411 38.727 H 0.0 **** 0.0
13263 H 14.163 30.761 39.083 H 0.0 **** 0.0
13264 H 15.878 31.055 38.709 H 0.0 **** 0.0
13265 H 14.652 31.197 37.427 H 0.0 **** 0.0
13266 C 53.666 41.042 3.235 C 0.0 **** 0.0
13267 H 54.208 41.872 2.783 H 0.0 **** 0.0
13268 H 52.598 41.263 3.237 H 0.0 **** 0.0
13269 H 54.009 40.9 4.26 H 0.0 **** 0.0
13270 H 53.848 40.133 2.661 H 0.0 **** 0.0
13271 C 3.051 40.165 92.757 C 0.0 **** 0.0
13272 H 2.833 39.174 92.358 H 0.0 **** 0.0
13273 H 3.85 40.091 93.495 H 0.0 **** 0.0
13274 H 2.156 40.571 93.228 H 0.0 **** 0.0
13275 H 3.365 40.821 91.946 H 0.0 **** 0.0
13276 C 90.897 86.864 16.89 C 0.0 **** 0.0
13277 H 91.439 86.771 17.831 H 0.0 **** 0.0
13278 H 89.83 86.732 17.07 H 0.0 **** 0.0
13279 H 91.245 86.101 16.193 H 0.0 **** 0.0
13280 H 91.075 87.852 16.464 H 0.0 **** 0.0
13281 C 47.264 84.088 50.124 C 0.0 **** 0.0
13282 H 46.476 84.42 50.801 H 0.0 **** 0.0
13283 H 47.402 83.012 50.228 H 0.0 **** 0.0
13284 H 48.194 84.6 50.37 H 0.0 **** 0.0
13285 H 46.982 84.321 49.097 H 0.0 **** 0.0
13286 C 75.038 87.307 30.896 C 0.0 **** 0.0
13287 H 74.61 87.03 29.933 H 0.0 **** 0.0
13288 H 74.237 87.432 31.626 H 0.0 **** 0.0
13289 H 75.586 88.244 30.795 H 0.0 **** 0.0
13290 H 75.716 86.523 31.231 H 0.0 **** 0.0
13291 C 32.672 61.391 72.401 C 0.0 **** 0.0
13292 H 32.271 60.432 72.073 H 0.0 **** 0.0
13293 H 31.85 62.059 72.657 H 0.0 **** 0.0
13294 H 33.262 61.831 71.597 H 0.0 **** 0.0
13295 H 33.305 61.24 73.275 H 0.0 **** 0.0
13296 C 49.227 25.589 21.461 C 0.0 **** 0.0
13297 H 49.213 25.601 20.371 H 0.0 **** 0.0
13298 H 50.202 25.924 21.815 H 0.0 **** 0.0
13299 H 49.04 24.575 21.815 H 0.0 **** 0.0
13300 H 48.453 26.256 21.841 H 0.0 **** 0.0
13301 C 98.199 54.612 71.395 C 0.0 **** 0.0
13302 H 98.694 53.663 71.186 H 0.0 **** 0.0
13303 H 97.48 54.827 70.604 H 0.0 **** 0.0
13304 H 98.942 55.408 71.438 H 0.0 **** 0.0
13305 H 97.679 54.547 72.351 H 0.0 **** 0.0
13306 C 77.422 25.431 34.152 C 0.0 **** 0.0
13307 H 77.202 25.757 35.169 H 0.0 **** 0.0
13308 H 76.821 24.553 33.914 H 0.0 **** 0.0
13309 H 78.48 25.181 34.072 H 0.0 **** 0.0
13310 H 77.185 26.234 33.454 H 0.0 **** 0.0
13311 C 0.888 88.113 87.435 C 0.0 **** 0.0
13312 H 0.228 87.299 87.136 H 0.0 **** 0.0
13313 H 0.836 88.912 86.694 H 0.0 **** 0.0
13314 H 1.911 87.746 87.502 H 0.0 **** 0.0
13315 H 0.574 88.497 88.405 H 0.0 **** 0.0
13316 C 64.11 14.157 51.462 C 0.0 **** 0.0
13317 H 64.891 13.741 52.099 H 0.0 **** 0.0
13318 H 64.487 14.256 50.444 H 0.0 **** 0.0
13319 H 63.819 15.138 51.839 H 0.0 **** 0.0
13320 H 63.245 13.494 51.468 H 0.0 **** 0.0
13321 C 78.447 57.867 2.659 C 0.0 **** 0.0
13322 H 78.367 57.839 3.745 H 0.0 **** 0.0
13323 H 78.572 56.853 2.278 H 0.0 **** 0.0
13324 H 79.308 58.472 2.374 H 0.0 **** 0.0
13325 H 77.541 58.304 2.239 H 0.0 **** 0.0
13326 C 13.862 21.302 4.261 C 0.0 **** 0.0
13327 H 13.537 22.335 4.381 H 0.0 **** 0.0
13328 H 13.787 20.784 5.218 H 0.0 **** 0.0
13329 H 14.897 21.285 3.919 H 0.0 **** 0.0
13330 H 13.229 20.804 3.527 H 0.0 **** 0.0
13331 C 93.795 21.591 22.085 C 0.0 **** 0.0
13332 H 92.955 21.538 21.392 H 0.0 **** 0.0
13333 H 93.677 22.46 22.733 H 0.0 **** 0.0
13334 H 94.724 21.68 21.523 H 0.0 **** 0.0
13335 H 93.822 20.686 22.692 H 0.0 **** 0.0
13336 C 96.237 43.087 20.854 C 0.0 **** 0.0
13337 H 95.615 43.485 21.655 H 0.0 **** 0.0
13338 H 95.665 43.066 19.926 H 0.0 **** 0.0
13339 H 96.554 42.076 21.108 H 0.0 **** 0.0
13340 H 97.114 43.721 20.726 H 0.0 **** 0.0
13341 C 61.043 91.705 90.627 C 0.0 **** 0.0
13342 H 60.937 91.506 91.693 H 0.0 **** 0.0
13343 H 61.141 92.778 90.465 H 0.0 **** 0.0
13344 H 60.162 91.337 90.099 H 0.0 **** 0.0
13345 H 61.931 91.197 90.249 H 0.0 **** 0.0
13346 C 5.083 63.407 79.133 C 0.0 **** 0.0
13347 H 5.213 63.701 78.092 H 0.0 **** 0.0
13348 H 4.898 64.294 79.74 H 0.0 **** 0.0
13349 H 5.986 62.908 79.485 H 0.0 **** 0.0
13350 H 4.236 62.726 79.216 H 0.0 **** 0.0
13351 C 63.487 13.926 82.88 C 0.0 **** 0.0
13352 H 62.917 13.003 82.988 H 0.0 **** 0.0
13353 H 63.694 14.104 81.825 H 0.0 **** 0.0
13354 H 64.427 13.838 83.425 H 0.0 **** 0.0
13355 H 62.91 14.758 83.283 H 0.0 **** 0.0
13356 C 68.052 93.631 66.764 C 0.0 **** 0.0
13357 H 67.203 94.313 66.815 H 0.0 **** 0.0
13358 H 68.218 93.335 65.728 H 0.0 **** 0.0
13359 H 67.843 92.746 67.366 H 0.0 **** 0.0
13360 H 68.942 94.129 67.148 H 0.0 **** 0.0
13361 C 31.761 13.846 66.311 C 0.0 **** 0.0
13362 H 30.959 13.448 65.69 H 0.0 **** 0.0
13363 H 32.419 14.465 65.701 H 0.0 **** 0.0
13364 H 32.331 13.022 66.74 H 0.0 **** 0.0
13365 H 31.335 14.449 67.112 H 0.0 **** 0.0
13366 C 1.65 10.985 90.475 C 0.0 **** 0.0
13367 H 1.743 11.348 89.452 H 0.0 **** 0.0
13368 H 0.622 10.673 90.658 H 0.0 **** 0.0
13369 H 1.917 11.783 91.169 H 0.0 **** 0.0
13370 H 2.319 10.137 90.622 H 0.0 **** 0.0
13371 C 52.208 57.092 92.6 C 0.0 **** 0.0
13372 H 51.668 57.276 91.671 H 0.0 **** 0.0
13373 H 53.269 57.289 92.448 H 0.0 **** 0.0
13374 H 52.07 56.053 92.9 H 0.0 **** 0.0
13375 H 51.823 57.75 93.38 H 0.0 **** 0.0
13376 C 18.698 20.832 16.399 C 0.0 **** 0.0
13377 H 17.921 21.076 15.673 H 0.0 **** 0.0
13378 H 19.671 20.847 15.907 H 0.0 **** 0.0
13379 H 18.512 19.84 16.81 H 0.0 **** 0.0
13380 H 18.685 21.567 17.204 H 0.0 **** 0.0
13381 C 4.021 76.561 80.552 C 0.0 **** 0.0
13382 H 4.585 77.414 80.174 H 0.0 **** 0.0
13383 H 2.954 76.767 80.471 H 0.0 **** 0.0
13384 H 4.281 76.389 81.596 H 0.0 **** 0.0
13385 H 4.266 75.676 79.965 H 0.0 **** 0.0
13386 C 3.236 18.47 47.717 C 0.0 **** 0.0
13387 H 3.885 18.287 46.861 H 0.0 **** 0.0
13388 H 3.841 18.762 48.576 H 0.0 **** 0.0
13389 H 2.683 17.561 47.954 H 0.0 **** 0.0
13390 H 2.535 19.269 47.477 H 0.0 **** 0.0
13391 C 70.371 26.344 61.558 C 0.0 **** 0.0
13392 H 71.015 26.65 60.733 H 0.0 **** 0.0
13393 H 69.382 26.783 61.429 H 0.0 **** 0.0
13394 H 70.801 26.686 62.5 H 0.0 **** 0.0
13395 H 70.289 25.257 61.57 H 0.0 **** 0.0
13396 C 34.512 32.155 5.212 C 0.0 **** 0.0
13397 H 34.282 31.839 4.194 H 0.0 **** 0.0
13398 H 33.643 31.992 5.848 H 0.0 **** 0.0
13399 H 34.77 33.214 5.213 H 0.0 **** 0.0
13400 H 35.354 31.575 5.59 H 0.0 **** 0.0
13401 C 98.289 89.37 32.465 C 0.0 **** 0.0
13402 H 98.008 89.399 33.518 H 0.0 **** 0.0
13403 H 98.746 90.319 32.185 H 0.0 **** 0.0
13404 H 97.4 89.202 31.857 H 0.0 **** 0.0
13405 H 99.0 88.561 32.3 H 0.0 **** 0.0
13406 C 47.713 57.8 7.164 C 0.0 **** 0.0
13407 H 47.474 57.137 7.995 H 0.0 **** 0.0
13408 H 46.79 58.129 6.685 H 0.0 **** 0.0
13409 H 48.328 57.266 6.439 H 0.0 **** 0.0
13410 H 48.259 58.666 7.536 H 0.0 **** 0.0
13411 C 54.887 66.814 49.488 C 0.0 **** 0.0
13412 H 53.857 66.698 49.15 H 0.0 **** 0.0
13413 H 54.901 66.938 50.571 H 0.0 **** 0.0
13414 H 55.327 67.692 49.015 H 0.0 **** 0.0
13415 H 55.461 65.929 49.215 H 0.0 **** 0.0
13416 C 68.928 87.237 46.14 C 0.0 **** 0.0
13417 H 68.326 88.145 46.125 H 0.0 **** 0.0
13418 H 68.362 86.419 45.694 H 0.0 **** 0.0
13419 H 69.181 86.985 47.17 H 0.0 **** 0.0
13420 H 69.843 87.398 45.57 H 0.0 **** 0.0
13421 C 49.126 38.941 19.317 C 0.0 **** 0.0
13422 H 48.598 38.213 19.933 H 0.0 **** 0.0
13423 H 48.424 39.409 18.626 H 0.0 **** 0.0
13424 H 49.912 38.439 18.753 H 0.0 **** 0.0
13425 H 49.569 39.704 19.957 H 0.0 **** 0.0
13426 C 79.802 54.269 37.723 C 0.0 **** 0.0
13427 H 79.755 54.222 38.811 H 0.0 **** 0.0
13428 H 80.138 53.308 37.332 H 0.0 **** 0.0
13429 H 80.503 55.048 37.424 H 0.0 **** 0.0
13430 H 78.813 54.498 37.327 H 0.0 **** 0.0
13431 C 42.251 19.651 86.998 C 0.0 **** 0.0
13432 H 42.33 18.76 86.376 H 0.0 **** 0.0
13433 H 43.248 20.041 87.202 H 0.0 **** 0.0
13434 H 41.76 19.396 87.938 H 0.0 **** 0.0
13435 H 41.664 20.407 86.476 H 0.0 **** 0.0
13436 C 96.216 32.216 22.238 C 0.0 **** 0.0
13437 H 96.756 32.868 21.551 H 0.0 **** 0.0
13438 H 96.795 31.307 22.406 H 0.0 **** 0.0
13439 H 95.248 31.958 21.81 H 0.0 **** 0.0
13440 H 96.068 32.733 23.187 H 0.0 **** 0.0
13441 C 7.554 58.139 97.336 C 0.0 **** 0.0
13442 H 8.563 58.451 97.606 H 0.0 **** 0.0
13443 H 7.526 57.877 96.278 H 0.0 **** 0.0
13444 H 6.858 58.955 97.528 H 0.0 **** 0.0
13445 H 7.271 57.271 97.933 H 0.0 **** 0.0
13446 C 34.476 30.353 75.976 C 0.0 **** 0.0
13447 H 34.46 30.732 76.998 H 0.0 **** 0.0
13448 H 34.176 29.305 75.973 H 0.0 **** 0.0
13449 H 35.483 30.445 75.57 H 0.0 **** 0.0
13450 H 33.783 30.932 75.365 H 0.0 **** 0.0
13451 C 70.517 14.714 85.705 C 0.0 **** 0.0
13452 H 70.31 15.441 86.491 H 0.0 **** 0.0
13453 H 69.577 14.324 85.315 H 0.0 **** 0.0
13454 H 71.109 13.896 86.115 H 0.0 **** 0.0
13455 H 71.072 15.197 84.901 H 0.0 **** 0.0
13456 C 19.682 40.719 48.55 C 0.0 **** 0.0
13457 H 20.1 40.031 47.815 H 0.0 **** 0.0
13458 H 19.857 41.746 48.227 H 0.0 **** 0.0
13459 H 20.162 40.555 49.514 H 0.0 **** 0.0
13460 H 18.61 40.544 48.642 H 0.0 **** 0.0
13461 C 49.757 96.608 56.463 C 0.0 **** 0.0
13462 H 50.427 96.483 55.612 H 0.0 **** 0.0
13463 H 50.328 96.535 57.388 H 0.0 **** 0.0
13464 H 48.996 95.828 56.443 H 0.0 **** 0.0
13465 H 49.277 97.585 56.407 H 0.0 **** 0.0
13466 C 5.136 32.528 95.609 C 0.0 **** 0.0
13467 H 4.065 32.336 95.677 H 0.0 **** 0.0
13468 H 5.398 33.358 96.265 H 0.0 **** 0.0
13469 H 5.395 32.78 94.581 H 0.0 **** 0.0
13470 H 5.684 31.636 95.914 H 0.0 **** 0.0
13471 C 15.882 83.369 69.139 C 0.0 **** 0.0
13472 H 15.938 83.563 70.21 H 0.0 **** 0.0
13473 H 16.251 82.364 68.932 H 0.0 **** 0.0
13474 H 16.494 84.097 68.607 H 0.0 **** 0.0
13475 H 14.847 83.452 68.808 H 0.0 **** 0.0
13476 C 95.618 5.122 26.635 C 0.0 **** 0.0
13477 H 95.611 5.103 25.545 H 0.0 **** 0.0
13478 H 96.534 4.657 27.0 H 0.0 **** 0.0
13479 H 94.756 4.574 27.014 H 0.0 **** 0.0
13480 H 95.573 6.155 26.98 H 0.0 **** 0.0
13481 C 66.663 25.506 24.958 C 0.0 **** 0.0
13482 H 66.03 24.646 25.178 H 0.0 **** 0.0
13483 H 66.069 26.277 24.467 H 0.0 **** 0.0
13484 H 67.476 25.199 24.3 H 0.0 **** 0.0
13485 H 67.076 25.9 25.886 H 0.0 **** 0.0
13486 C 48.761 78.005 89.797 C 0.0 **** 0.0
13487 H 48.714 77.921 88.711 H 0.0 **** 0.0
13488 H 48.635 77.018 90.243 H 0.0 **** 0.0
13489 H 47.966 78.664 90.144 H 0.0 **** 0.0
13490 H 49.727 78.415 90.088 H 0.0 **** 0.0
13491 C 66.796 15.356 17.455 C 0.0 **** 0.0
13492 H 66.544 14.532 18.122 H 0.0 **** 0.0
13493 H 66.27 16.256 17.774 H 0.0 **** 0.0
13494 H 66.5 15.103 16.437 H 0.0 **** 0.0
13495 H 67.872 15.533 17.487 H 0.0 **** 0.0
13496 C 89.479 15.73 29.729 C 0.0 **** 0.0
13497 H 88.419 15.518 29.586 H 0.0 **** 0.0
13498 H 89.849 16.316 28.888 H 0.0 **** 0.0
13499 H 90.031 14.792 29.79 H 0.0 **** 0.0
13500 H 89.615 16.292 30.653 H 0.0 **** 0.0
13501 C 13.859 21.021 36.324 C 0.0 **** 0.0
13502 H 13.517 21.817 36.985 H 0.0 **** 0.0
13503 H 14.659 20.463 36.811 H 0.0 **** 0.0
13504 H 14.231 21.454 35.396 H 0.0 **** 0.0
13505 H 13.029 20.349 36.105 H 0.0 **** 0.0
13506 C 27.386 93.084 32.684 C 0.0 **** 0.0
13507 H 26.992 93.767 31.931 H 0.0 **** 0.0
13508 H 27.763 92.185 32.197 H 0.0 **** 0.0
13509 H 26.592 92.815 33.381 H 0.0 **** 0.0
13510 H 28.196 93.571 33.227 H 0.0 **** 0.0
13511 C 68.122 3.093 17.501 C 0.0 **** 0.0
13512 H 68.053 2.351 16.706 H 0.0 **** 0.0
13513 H 68.793 2.729 18.28 H 0.0 **** 0.0
13514 H 67.132 3.263 17.925 H 0.0 **** 0.0
13515 H 68.509 4.027 17.094 H 0.0 **** 0.0
13516 C 87.259 92.068 12.654 C 0.0 **** 0.0
13517 H 86.907 91.417 13.454 H 0.0 **** 0.0
13518 H 86.438 92.697 12.31 H 0.0 **** 0.0
13519 H 87.624 91.461 11.826 H 0.0 **** 0.0
13520 H 88.067 92.698 13.028 H 0.0 **** 0.0
13521 C 73.265 76.557 45.107 C 0.0 **** 0.0
13522 H 74.116 77.237 45.151 H 0.0 **** 0.0
13523 H 72.403 77.082 44.695 H 0.0 **** 0.0
13524 H 73.03 76.203 46.111 H 0.0 **** 0.0
13525 H 73.512 75.708 44.47 H 0.0 **** 0.0
13526 C 87.452 72.491 26.91 C 0.0 **** 0.0
13527 H 87.05 72.648 27.911 H 0.0 **** 0.0
13528 H 88.276 73.183 26.737 H 0.0 **** 0.0
13529 H 86.669 72.665 26.172 H 0.0 **** 0.0
13530 H 87.813 71.466 26.821 H 0.0 **** 0.0
13531 C 35.678 32.305 87.352 C 0.0 **** 0.0
13532 H 35.541 32.376 88.431 H 0.0 **** 0.0
13533 H 35.004 31.549 86.949 H 0.0 **** 0.0
13534 H 36.709 32.027 87.135 H 0.0 **** 0.0
13535 H 35.457 33.27 86.895 H 0.0 **** 0.0
13536 C 3.276 54.028 49.218 C 0.0 **** 0.0
13537 H 3.388 53.709 50.254 H 0.0 **** 0.0
13538 H 2.439 54.722 49.14 H 0.0 **** 0.0
13539 H 3.087 53.158 48.589 H 0.0 **** 0.0
13540 H 4.19 54.522 48.889 H 0.0 **** 0.0
13541 C 49.731 7.919 47.691 C 0.0 **** 0.0
13542 H 49.212 8.872 47.583 H 0.0 **** 0.0
13543 H 49.568 7.529 48.696 H 0.0 **** 0.0
13544 H 50.798 8.066 47.526 H 0.0 **** 0.0
13545 H 49.344 7.21 46.958 H 0.0 **** 0.0
13546 C 32.95 52.602 53.264 C 0.0 **** 0.0
13547 H 32.354 53.49 53.473 H 0.0 **** 0.0
13548 H 34.002 52.879 53.192 H 0.0 **** 0.0
13549 H 32.625 52.161 52.321 H 0.0 **** 0.0
13550 H 32.819 51.878 54.068 H 0.0 **** 0.0
13551 C 32.61 32.468 91.293 C 0.0 **** 0.0
13552 H 32.132 32.14 92.216 H 0.0 **** 0.0
13553 H 32.439 31.726 90.513 H 0.0 **** 0.0
13554 H 33.682 32.581 91.459 H 0.0 **** 0.0
13555 H 32.187 33.424 90.985 H 0.0 **** 0.0
13556 C 60.135 34.432 45.446 C 0.0 **** 0.0
13557 H 60.203 34.875 46.439 H 0.0 **** 0.0
13558 H 61.087 33.963 45.192 H 0.0 **** 0.0
13559 H 59.907 35.209 44.716 H 0.0 **** 0.0
13560 H 59.346 33.68 45.436 H 0.0 **** 0.0
13561 C 8.382 84.197 58.339 C 0.0 **** 0.0
13562 H 9.284 84.78 58.15 H 0.0 **** 0.0
13563 H 7.655 84.814 58.868 H 0.0 **** 0.0
13564 H 8.632 83.328 58.947 H 0.0 **** 0.0
13565 H 7.957 83.868 57.391 H 0.0 **** 0.0
13566 C 58.863 8.805 71.46 C 0.0 **** 0.0
13567 H 58.959 9.87 71.247 H 0.0 **** 0.0
13568 H 59.479 8.551 72.324 H 0.0 **** 0.0
13569 H 59.195 8.231 70.595 H 0.0 **** 0.0
13570 H 57.821 8.57 71.674 H 0.0 **** 0.0
13571 C 45.149 94.886 26.678 C 0.0 **** 0.0
13572 H 44.519 94.754 25.799 H 0.0 **** 0.0
13573 H 45.246 93.935 27.202 H 0.0 **** 0.0
13574 H 44.697 95.623 27.342 H 0.0 **** 0.0
13575 H 46.136 95.232 26.369 H 0.0 **** 0.0
13576 C 93.691 48.803 73.408 C 0.0 **** 0.0
13577 H 93.664 48.171 74.295 H 0.0 **** 0.0
13578 H 94.678 49.257 73.316 H 0.0 **** 0.0
13579 H 92.938 49.586 73.497 H 0.0 **** 0.0
13580 H 93.485 48.199 72.525 H 0.0 **** 0.0
13581 C 1.65 37.552 94.943 C 0.0 **** 0.0
13582 H 1.751 37.142 93.938 H 0.0 **** 0.0
13583 H 2.621 37.905 95.291 H 0.0 **** 0.0
13584 H 1.283 36.777 95.616 H 0.0 **** 0.0
13585 H 0.945 38.383 94.927 H 0.0 **** 0.0
13586 C 7.967 40.874 40.727 C 0.0 **** 0.0
13587 H 8.06 41.275 41.736 H 0.0 **** 0.0
13588 H 7.152 41.38 40.209 H 0.0 **** 0.0
13589 H 7.758 39.806 40.778 H 0.0 **** 0.0
13590 H 8.898 41.036 40.184 H 0.0 **** 0.0
13591 C 17.618 41.552 9.993 C 0.0 **** 0.0
13592 H 17.569 42.049 10.961 H 0.0 **** 0.0
13593 H 16.615 41.474 9.573 H 0.0 **** 0.0
13594 H 18.038 40.554 10.119 H 0.0 **** 0.0
13595 H 18.251 42.13 9.319 H 0.0 **** 0.0
13596 C 5.278 37.316 84.801 C 0.0 **** 0.0
13597 H 4.896 37.167 83.791 H 0.0 **** 0.0
13598 H 5.033 38.324 85.137 H 0.0 **** 0.0
13599 H 6.36 37.186 84.802 H 0.0 **** 0.0
13600 H 4.823 36.588 85.472 H 0.0 **** 0.0
13601 C 54.471 27.548 6.733 C 0.0 **** 0.0
13602 H 54.003 27.784 5.777 H 0.0 **** 0.0
13603 H 53.701 27.289 7.46 H 0.0 **** 0.0
13604 H 55.029 28.415 7.088 H 0.0 **** 0.0
13605 H 55.151 26.706 6.606 H 0.0 **** 0.0
13606 C 90.072 48.765 61.134 C 0.0 **** 0.0
13607 H 90.233 49.025 62.18 H 0.0 **** 0.0
13608 H 90.349 47.723 60.972 H 0.0 **** 0.0
13609 H 90.685 49.407 60.502 H 0.0 **** 0.0
13610 H 89.02 48.905 60.883 H 0.0 **** 0.0
13611 C 12.111 30.236 4.988 C 0.0 **** 0.0
13612 H 11.859 31.296 4.998 H 0.0 **** 0.0
13613 H 13.09 30.099 4.528 H 0.0 **** 0.0
13614 H 11.361 29.69 4.415 H 0.0 **** 0.0
13615 H 12.133 29.858 6.01 H 0.0 **** 0.0
13616 C 86.995 18.55 20.8 C 0.0 **** 0.0
13617 H 86.428 18.758 21.707 H 0.0 **** 0.0
13618 H 86.325 18.565 19.94 H 0.0 **** 0.0
13619 H 87.462 17.568 20.88 H 0.0 **** 0.0
13620 H 87.767 19.31 20.673 H 0.0 **** 0.0
13621 C 37.813 64.764 97.49 C 0.0 **** 0.0
13622 H 38.011 63.749 97.146 H 0.0 **** 0.0
13623 H 38.652 65.408 97.226 H 0.0 **** 0.0
13624 H 37.682 64.762 98.572 H 0.0 **** 0.0
13625 H 36.905 65.137 97.016 H 0.0 **** 0.0
13626 C 93.119 86.992 39.885 C 0.0 **** 0.0
13627 H 92.047 87.005 39.688 H 0.0 **** 0.0
13628 H 93.572 86.142 39.374 H 0.0 **** 0.0
13629 H 93.29 86.905 40.958 H 0.0 **** 0.0
13630 H 93.566 87.916 39.519 H 0.0 **** 0.0
13631 C 28.779 44.105 14.645 C 0.0 **** 0.0
13632 H 28.672 44.199 15.726 H 0.0 **** 0.0
13633 H 27.959 44.628 14.152 H 0.0 **** 0.0
13634 H 28.758 43.051 14.368 H 0.0 **** 0.0
13635 H 29.728 44.543 14.336 H 0.0 **** 0.0
13636 C 68.966 28.419 13.217 C 0.0 **** 0.0
13637 H 68.747 28.722 12.193 H 0.0 **** 0.0
13638 H 69.28 27.375 13.227 H 0.0 **** 0.0
13639 H 68.072 28.536 13.83 H 0.0 **** 0.0
13640 H 69.765 29.043 13.617 H 0.0 **** 0.0
13641 C 43.209 30.282 82.06 C 0.0 **** 0.0
13642 H 43.415 30.288 83.13 H 0.0 **** 0.0
13643 H 42.158 30.046 81.894 H 0.0 **** 0.0
13644 H 43.831 29.53 81.575 H 0.0 **** 0.0
13645 H 43.432 31.263 81.642 H 0.0 **** 0.0
13646 C 65.692 35.46 18.422 C 0.0 **** 0.0
13647 H 65.677 35.554 19.508 H 0.0 **** 0.0
13648 H 66.499 36.07 18.016 H 0.0 **** 0.0
13649 H 64.739 35.8 18.015 H 0.0 **** 0.0
13650 H 65.852 34.417 18.15 H 0.0 **** 0.0
13651 C 14.655 11.982 5.63 C 0.0 **** 0.0
13652 H 13.657 12.351 5.394 H 0.0 **** 0.0
13653 H 15.232 12.776 6.105 H 0.0 **** 0.0
13654 H 15.153 11.669 4.713 H 0.0 **** 0.0
13655 H 14.577 11.133 6.31 H 0.0 **** 0.0
13656 C 72.489 40.38 69.201 C 0.0 **** 0.0
13657 H 73.48 40.576 68.789 H 0.0 **** 0.0
13658 H 72.079 39.478 68.747 H 0.0 **** 0.0
13659 H 71.834 41.225 68.986 H 0.0 **** 0.0
13660 H 72.565 40.244 70.279 H 0.0 **** 0.0
13661 C 79.558 24.038 77.817 C 0.0 **** 0.0
13662 H 78.611 23.599 78.131 H 0.0 **** 0.0
13663 H 79.365 24.883 77.155 H 0.0 **** 0.0
13664 H 80.148 23.29 77.288 H 0.0 **** 0.0
13665 H 80.107 24.381 78.693 H 0.0 **** 0.0
13666 C 93.658 85.831 11.992 C 0.0 **** 0.0
13667 H 93.339 84.878 11.571 H 0.0 **** 0.0
13668 H 94.515 86.207 11.431 H 0.0 **** 0.0
13669 H 93.939 85.691 13.036 H 0.0 **** 0.0
13670 H 92.84 86.548 11.929 H 0.0 **** 0.0
13671 C 88.331 61.746 63.996 C 0.0 **** 0.0
13672 H 87.769 61.503 64.898 H 0.0 **** 0.0
13673 H 88.397 62.829 63.891 H 0.0 **** 0.0
13674 H 87.823 61.327 63.128 H 0.0 **** 0.0
13675 H 89.334 61.326 64.069 H 0.0 **** 0.0
13676 C 82.488 31.391 32.441 C 0.0 **** 0.0
13677 H 82.961 32.264 31.99 H 0.0 **** 0.0
13678 H 81.703 31.716 33.124 H 0.0 **** 0.0
13679 H 83.233 30.817 32.99 H 0.0 **** 0.0
13680 H 82.054 30.769 31.658 H 0.0 **** 0.0
13681 C 30.173 64.442 79.978 C 0.0 **** 0.0
13682 H 29.588 63.706 80.529 H 0.0 **** 0.0
13683 H 30.352 65.311 80.61 H 0.0 **** 0.0
13684 H 29.625 64.747 79.086 H 0.0 **** 0.0
13685 H 31.127 64.002 79.685 H 0.0 **** 0.0
13686 C 55.232 2.849 29.978 C 0.0 **** 0.0
13687 H 54.817 3.81 29.673 H 0.0 **** 0.0
13688 H 54.427 2.198 30.32 H 0.0 **** 0.0
13689 H 55.945 3.003 30.788 H 0.0 **** 0.0
13690 H 55.739 2.387 29.131 H 0.0 **** 0.0
13691 C 27.68 81.957 54.032 C 0.0 **** 0.0
13692 H 27.808 81.585 53.015 H 0.0 **** 0.0
13693 H 26.991 81.307 54.572 H 0.0 **** 0.0
13694 H 27.277 82.969 54.0 H 0.0 **** 0.0
13695 H 28.644 81.966 54.539 H 0.0 **** 0.0
13696 C 28.824 88.897 74.297 C 0.0 **** 0.0
13697 H 29.47 89.187 75.126 H 0.0 **** 0.0
13698 H 29.359 89.031 73.356 H 0.0 **** 0.0
13699 H 27.93 89.52 74.299 H 0.0 **** 0.0
13700 H 28.54 87.851 74.408 H 0.0 **** 0.0
13701 C 55.213 77.48 64.066 C 0.0 **** 0.0
13702 H 54.557 78.278 64.416 H 0.0 **** 0.0
13703 H 55.848 77.147 64.887 H 0.0 **** 0.0
13704 H 55.835 77.852 63.252 H 0.0 **** 0.0
13705 H 54.61 76.645 63.711 H 0.0 **** 0.0
13706 C 39.148 62.48 62.723 C 0.0 **** 0.0
13707 H 38.655 61.514 62.83 H 0.0 **** 0.0
13708 H 40.197 62.385 63.004 H 0.0 **** 0.0
13709 H 38.662 63.209 63.373 H 0.0 **** 0.0
13710 H 39.077 62.812 61.688 H 0.0 **** 0.0
13711 C 97.508 62.918 89.002 C 0.0 **** 0.0
13712 H 97.903 61.93 89.236 H 0.0 **** 0.0
13713 H 97.386 63.014 87.923 H 0.0 **** 0.0
13714 H 98.2 63.68 89.359 H 0.0 **** 0.0
13715 H 96.542 63.047 89.49 H 0.0 **** 0.0
13716 C 31.253 36.126 59.092 C 0.0 **** 0.0
13717 H 31.717 36.108 58.106 H 0.0 **** 0.0
13718 H 30.927 35.121 59.359 H 0.0 **** 0.0
13719 H 30.393 36.796 59.077 H 0.0 **** 0.0
13720 H 31.977 36.481 59.827 H 0.0 **** 0.0
13721 C 80.88 16.83 49.872 C 0.0 **** 0.0
13722 H 81.014 17.013 50.938 H 0.0 **** 0.0
13723 H 81.248 15.833 49.626 H 0.0 **** 0.0
13724 H 81.437 17.574 49.302 H 0.0 **** 0.0
13725 H 79.821 16.898 49.621 H 0.0 **** 0.0
13726 C 27.606 62.495 55.758 C 0.0 **** 0.0
13727 H 27.596 62.782 54.706 H 0.0 **** 0.0
13728 H 28.174 61.572 55.877 H 0.0 **** 0.0
13729 H 26.584 62.34 56.101 H 0.0 **** 0.0
13730 H 28.071 63.287 56.346 H 0.0 **** 0.0
13731 C 94.416 10.379 18.725 C 0.0 **** 0.0
13732 H 95.015 11.269 18.529 H 0.0 **** 0.0
13733 H 93.949 10.465 19.706 H 0.0 **** 0.0
13734 H 95.058 9.498 18.704 H 0.0 **** 0.0
13735 H 93.644 10.286 17.962 H 0.0 **** 0.0
13736 C 27.505 1.795 3.843 C 0.0 **** 0.0
13737 H 26.647 2.364 4.2 H 0.0 **** 0.0
13738 H 28.139 1.525 4.688 H 0.0 **** 0.0
13739 H 28.076 2.402 3.139 H 0.0 **** 0.0
13740 H 27.159 0.89 3.344 H 0.0 **** 0.0
13741 C 70.969 8.428 88.459 C 0.0 **** 0.0
13742 H 69.892 8.262 88.437 H 0.0 **** 0.0
13743 H 71.406 8.092 87.518 H 0.0 **** 0.0
13744 H 71.406 7.866 89.284 H 0.0 **** 0.0
13745 H 71.17 9.49 88.595 H 0.0 **** 0.0
13746 C 3.489 26.384 25.722 C 0.0 **** 0.0
13747 H 4.351 26.788 25.191 H 0.0 **** 0.0
13748 H 2.767 27.182 25.902 H 0.0 **** 0.0
13749 H 3.813 25.964 26.674 H 0.0 **** 0.0
13750 H 3.024 25.604 25.119 H 0.0 **** 0.0
13751 C 28.065 83.613 50.054 C 0.0 **** 0.0
13752 H 27.038 83.657 49.693 H 0.0 **** 0.0
13753 H 28.356 84.59 50.442 H 0.0 **** 0.0
13754 H 28.727 83.335 49.234 H 0.0 **** 0.0
13755 H 28.139 82.87 50.848 H 0.0 **** 0.0
13756 C 60.417 51.472 14.266 C 0.0 **** 0.0
13757 H 60.107 52.517 14.26 H 0.0 **** 0.0
13758 H 59.737 50.895 14.894 H 0.0 **** 0.0
13759 H 61.43 51.395 14.662 H 0.0 **** 0.0
13760 H 60.393 51.08 13.25 H 0.0 **** 0.0
13761 C 63.602 20.781 74.777 C 0.0 **** 0.0
13762 H 63.536 20.914 75.857 H 0.0 **** 0.0
13763 H 64.303 19.976 74.553 H 0.0 **** 0.0
13764 H 63.952 21.706 74.318 H 0.0 **** 0.0
13765 H 62.619 20.528 74.381 H 0.0 **** 0.0
13766 C 65.052 52.592 87.685 C 0.0 **** 0.0
13767 H 64.986 52.638 88.772 H 0.0 **** 0.0
13768 H 64.165 52.099 87.288 H 0.0 **** 0.0
13769 H 65.941 52.03 87.399 H 0.0 **** 0.0
13770 H 65.117 53.603 87.283 H 0.0 **** 0.0
13771 C 42.603 33.789 97.253 C 0.0 **** 0.0
13772 H 41.863 33.254 96.658 H 0.0 **** 0.0
13773 H 43.499 33.953 96.655 H 0.0 **** 0.0
13774 H 42.855 33.199 98.134 H 0.0 **** 0.0
13775 H 42.192 34.75 97.564 H 0.0 **** 0.0
13776 C 33.778 80.797 45.315 C 0.0 **** 0.0
13777 H 33.022 81.572 45.191 H 0.0 **** 0.0
13778 H 33.385 79.845 44.957 H 0.0 **** 0.0
13779 H 34.039 80.709 46.369 H 0.0 **** 0.0
13780 H 34.667 81.061 44.742 H 0.0 **** 0.0
13781 C 35.737 24.766 49.677 C 0.0 **** 0.0
13782 H 35.8 25.182 48.672 H 0.0 **** 0.0
13783 H 34.743 24.95 50.085 H 0.0 **** 0.0
13784 H 36.485 25.24 50.314 H 0.0 **** 0.0
13785 H 35.921 23.692 49.638 H 0.0 **** 0.0
13786 C 73.156 7.499 3.201 C 0.0 **** 0.0
13787 H 73.728 6.679 3.636 H 0.0 **** 0.0
13788 H 72.426 7.098 2.497 H 0.0 **** 0.0
13789 H 73.832 8.176 2.679 H 0.0 **** 0.0
13790 H 72.639 8.041 3.993 H 0.0 **** 0.0
13791 C 89.239 32.715 14.798 C 0.0 **** 0.0
13792 H 89.381 32.824 15.873 H 0.0 **** 0.0
13793 H 88.284 32.226 14.605 H 0.0 **** 0.0
13794 H 90.047 32.112 14.384 H 0.0 **** 0.0
13795 H 89.245 33.7 14.33 H 0.0 **** 0.0
13796 C 19.641 25.861 56.917 C 0.0 **** 0.0
13797 H 19.135 25.359 56.092 H 0.0 **** 0.0
13798 H 18.942 26.532 57.417 H 0.0 **** 0.0
13799 H 20.483 26.435 56.531 H 0.0 **** 0.0
13800 H 20.002 25.117 57.628 H 0.0 **** 0.0
13801 C 71.4 4.437 56.516 C 0.0 **** 0.0
13802 H 71.561 4.616 55.453 H 0.0 **** 0.0
13803 H 70.92 3.468 56.652 H 0.0 **** 0.0
13804 H 70.76 5.22 56.923 H 0.0 **** 0.0
13805 H 72.359 4.444 57.035 H 0.0 **** 0.0
13806 C 77.689 24.716 18.193 C 0.0 **** 0.0
13807 H 78.768 24.838 18.289 H 0.0 **** 0.0
13808 H 77.472 24.051 17.356 H 0.0 **** 0.0
13809 H 77.229 25.687 18.015 H 0.0 **** 0.0
13810 H 77.289 24.286 19.111 H 0.0 **** 0.0
13811 C 88.407 33.013 51.247 C 0.0 **** 0.0
13812 H 88.615 33.093 50.18 H 0.0 **** 0.0
13813 H 87.832 33.88 51.571 H 0.0 **** 0.0
13814 H 89.347 32.973 51.798 H 0.0 **** 0.0
13815 H 87.835 32.105 51.438 H 0.0 **** 0.0
13816 C 34.113 69.072 76.552 C 0.0 **** 0.0
13817 H 33.99 68.225 77.229 H 0.0 **** 0.0
13818 H 33.718 69.972 77.023 H 0.0 **** 0.0
13819 H 33.571 68.877 75.626 H 0.0 **** 0.0
13820 H 35.171 69.21 76.333 H 0.0 **** 0.0
13821 C 60.373 37.814 39.366 C 0.0 **** 0.0
13822 H 61.328 37.372 39.651 H 0.0 **** 0.0
13823 H 59.635 37.616 40.143 H 0.0 **** 0.0
13824 H 60.038 37.378 38.425 H 0.0 **** 0.0
13825 H 60.494 38.891 39.245 H 0.0 **** 0.0
13826 C 21.807 27.396 79.154 C 0.0 **** 0.0
13827 H 22.624 27.389 79.875 H 0.0 **** 0.0
13828 H 21.558 28.427 78.898 H 0.0 **** 0.0
13829 H 20.934 26.908 79.588 H 0.0 **** 0.0
13830 H 22.112 26.862 78.254 H 0.0 **** 0.0
13831 C 58.412 81.403 11.262 C 0.0 **** 0.0
13832 H 58.988 80.859 10.514 H 0.0 **** 0.0
13833 H 57.385 81.037 11.267 H 0.0 **** 0.0
13834 H 58.417 82.466 11.021 H 0.0 **** 0.0
13835 H 58.857 81.251 12.245 H 0.0 **** 0.0
13836 C 28.341 56.634 80.398 C 0.0 **** 0.0
13837 H 28.312 56.562 79.311 H 0.0 **** 0.0
13838 H 27.388 56.3 80.81 H 0.0 **** 0.0
13839 H 28.521 57.669 80.689 H 0.0 **** 0.0
13840 H 29.144 56.004 80.782 H 0.0 **** 0.0
13841 C 87.567 56.502 64.582 C 0.0 **** 0.0
13842 H 87.617 56.833 65.619 H 0.0 **** 0.0
13843 H 88.338 57.009 64.001 H 0.0 **** 0.0
13844 H 86.586 56.741 64.171 H 0.0 **** 0.0
13845 H 87.727 55.425 64.536 H 0.0 **** 0.0
13846 C 20.053 51.728 47.441 C 0.0 **** 0.0
13847 H 18.994 51.536 47.27 H 0.0 **** 0.0
13848 H 20.172 52.325 48.345 H 0.0 **** 0.0
13849 H 20.465 52.271 46.59 H 0.0 **** 0.0
13850 H 20.579 50.781 47.558 H 0.0 **** 0.0
13851 C 68.402 11.736 15.312 C 0.0 **** 0.0
13852 H 68.183 11.644 14.248 H 0.0 **** 0.0
13853 H 67.606 11.265 15.888 H 0.0 **** 0.0
13854 H 68.47 12.79 15.579 H 0.0 **** 0.0
13855 H 69.35 11.243 15.531 H 0.0 **** 0.0
13856 C 66.273 96.106 42.94 C 0.0 **** 0.0
13857 H 66.268 96.478 43.964 H 0.0 **** 0.0
13858 H 65.46 95.392 42.809 H 0.0 **** 0.0
13859 H 67.225 95.615 42.737 H 0.0 **** 0.0
13860 H 66.14 96.94 42.25 H 0.0 **** 0.0
13861 C 73.067 63.296 2.333 C 0.0 **** 0.0
13862 H 72.801 64.238 2.813 H 0.0 **** 0.0
13863 H 74.123 63.313 2.06 H 0.0 **** 0.0
13864 H 72.462 63.162 1.436 H 0.0 **** 0.0
13865 H 72.882 62.472 3.022 H 0.0 **** 0.0
13866 C 64.394 37.4 38.16 C 0.0 **** 0.0
13867 H 64.368 36.581 38.879 H 0.0 **** 0.0
13868 H 64.923 38.248 38.594 H 0.0 **** 0.0
13869 H 63.375 37.696 37.909 H 0.0 **** 0.0
13870 H 64.91 37.073 37.257 H 0.0 **** 0.0
13871 C 85.077 14.545 90.691 C 0.0 **** 0.0
13872 H 85.051 13.994 89.751 H 0.0 **** 0.0
13873 H 85.65 15.463 90.557 H 0.0 **** 0.0
13874 H 85.548 13.931 91.459 H 0.0 **** 0.0
13875 H 84.06 14.792 90.995 H 0.0 **** 0.0
13876 C 33.412 37.72 55.129 C 0.0 **** 0.0
13877 H 34.177 37.593 55.895 H 0.0 **** 0.0
13878 H 33.398 38.759 54.798 H 0.0 **** 0.0
13879 H 32.438 37.457 55.543 H 0.0 **** 0.0
13880 H 33.634 37.071 54.282 H 0.0 **** 0.0
13881 C 73.671 4.943 12.816 C 0.0 **** 0.0
13882 H 73.927 4.952 11.757 H 0.0 **** 0.0
13883 H 74.038 4.022 13.27 H 0.0 **** 0.0
13884 H 72.588 4.997 12.928 H 0.0 **** 0.0
13885 H 74.131 5.8 13.308 H 0.0 **** 0.0
13886 C 49.312 14.613 83.704 C 0.0 **** 0.0
13887 H 49.528 14.488 82.643 H 0.0 **** 0.0
13888 H 48.622 13.834 84.029 H 0.0 **** 0.0
13889 H 48.86 15.591 83.87 H 0.0 **** 0.0
13890 H 50.238 14.54 84.274 H 0.0 **** 0.0
13891 C 51.279 16.824 33.313 C 0.0 **** 0.0
13892 H 50.777 17.243 34.185 H 0.0 **** 0.0
13893 H 52.228 17.336 33.159 H 0.0 **** 0.0
13894 H 50.648 16.954 32.434 H 0.0 **** 0.0
13895 H 51.461 15.761 33.475 H 0.0 **** 0.0
13896 C 13.502 67.667 90.241 C 0.0 **** 0.0
13897 H 13.875 68.582 89.781 H 0.0 **** 0.0
13898 H 12.422 67.609 90.109 H 0.0 **** 0.0
13899 H 13.739 67.674 91.306 H 0.0 **** 0.0
13900 H 13.974 66.805 89.77 H 0.0 **** 0.0
13901 C 61.79 54.995 62.021 C 0.0 **** 0.0
13902 H 61.022 54.682 61.314 H 0.0 **** 0.0
13903 H 61.588 56.015 62.348 H 0.0 **** 0.0
13904 H 62.766 54.955 61.537 H 0.0 **** 0.0
13905 H 61.784 54.328 62.883 H 0.0 **** 0.0
13906 C 45.547 60.445 8.15 C 0.0 **** 0.0
13907 H 45.273 60.476 9.205 H 0.0 **** 0.0
13908 H 46.504 59.936 8.038 H 0.0 **** 0.0
13909 H 45.629 61.463 7.767 H 0.0 **** 0.0
13910 H 44.78 59.908 7.591 H 0.0 **** 0.0
13911 C 58.188 40.774 26.271 C 0.0 **** 0.0
13912 H 57.795 40.433 27.229 H 0.0 **** 0.0
13913 H 58.11 39.971 25.539 H 0.0 **** 0.0
13914 H 59.234 41.059 26.389 H 0.0 **** 0.0
13915 H 57.614 41.635 25.929 H 0.0 **** 0.0
13916 C 87.372 44.018 10.961 C 0.0 **** 0.0
13917 H 86.376 44.379 11.215 H 0.0 **** 0.0
13918 H 87.292 43.22 10.222 H 0.0 **** 0.0
13919 H 87.86 43.636 11.857 H 0.0 **** 0.0
13920 H 87.961 44.837 10.548 H 0.0 **** 0.0
13921 C 77.365 10.026 39.621 C 0.0 **** 0.0
13922 H 77.338 9.83 40.693 H 0.0 **** 0.0
13923 H 77.876 10.972 39.438 H 0.0 **** 0.0
13924 H 76.347 10.082 39.236 H 0.0 **** 0.0
13925 H 77.9 9.22 39.119 H 0.0 **** 0.0
13926 C 16.108 33.626 35.75 C 0.0 **** 0.0
13927 H 16.487 33.055 34.902 H 0.0 **** 0.0
13928 H 15.435 34.405 35.391 H 0.0 **** 0.0
13929 H 16.942 34.082 36.282 H 0.0 **** 0.0
13930 H 15.567 32.96 36.423 H 0.0 **** 0.0
13931 C 72.196 13.63 9.162 C 0.0 **** 0.0
13932 H 72.571 13.853 10.161 H 0.0 **** 0.0
13933 H 72.705 14.261 8.433 H 0.0 **** 0.0
13934 H 71.124 13.823 9.125 H 0.0 **** 0.0
13935 H 72.384 12.582 8.929 H 0.0 **** 0.0
13936 C 75.768 57.453 52.846 C 0.0 **** 0.0
13937 H 76.626 57.8 53.422 H 0.0 **** 0.0
13938 H 75.306 58.299 52.338 H 0.0 **** 0.0
13939 H 75.044 56.991 53.517 H 0.0 **** 0.0
13940 H 76.098 56.722 52.109 H 0.0 **** 0.0
13941 C 50.35 13.02 23.718 C 0.0 **** 0.0
13942 H 50.283 12.955 22.632 H 0.0 **** 0.0
13943 H 49.443 12.608 24.163 H 0.0 **** 0.0
13944 H 50.458 14.063 24.013 H 0.0 **** 0.0
13945 H 51.214 12.453 24.063 H 0.0 **** 0.0
13946 C 98.089 68.488 52.269 C 0.0 **** 0.0
13947 H 98.822 69.089 52.806 H 0.0 **** 0.0
13948 H 98.265 68.573 51.197 H 0.0 **** 0.0
13949 H 97.086 68.845 52.503 H 0.0 **** 0.0
13950 H 98.183 67.445 52.571 H 0.0 **** 0.0
13951 C 67.475 20.212 62.314 C 0.0 **** 0.0
13952 H 66.666 20.813 62.73 H 0.0 **** 0.0
13953 H 68.351 20.284 62.96 H 0.0 **** 0.0
13954 H 67.725 20.579 61.319 H 0.0 **** 0.0
13955 H 67.157 19.171 62.248 H 0.0 **** 0.0
13956 C 81.472 21.605 68.765 C 0.0 **** 0.0
13957 H 81.679 21.597 67.695 H 0.0 **** 0.0
13958 H 81.138 20.616 69.078 H 0.0 **** 0.0
13959 H 80.693 22.337 68.978 H 0.0 **** 0.0
13960 H 82.379 21.872 69.307 H 0.0 **** 0.0
13961 C 49.641 80.934 67.919 C 0.0 **** 0.0
13962 H 48.895 80.424 68.528 H 0.0 **** 0.0
13963 H 49.248 81.899 67.598 H 0.0 **** 0.0
13964 H 49.873 80.327 67.044 H 0.0 **** 0.0
13965 H 50.546 81.087 68.507 H 0.0 **** 0.0
13966 C 39.558 7.851 79.36 C 0.0 **** 0.0
13967 H 40.122 8.759 79.147 H 0.0 **** 0.0
13968 H 39.561 7.207 78.481 H 0.0 **** 0.0
13969 H 38.532 8.113 79.616 H 0.0 **** 0.0
13970 H 40.019 7.326 80.197 H 0.0 **** 0.0
13971 C 52.244 45.582 44.635 C 0.0 **** 0.0
13972 H 52.364 44.781 43.906 H 0.0 **** 0.0
13973 H 51.215 45.595 44.995 H 0.0 **** 0.0
13974 H 52.479 46.538 44.167 H 0.0 **** 0.0
13975 H 52.92 45.413 45.474 H 0.0 **** 0.0
13976 C 60.67 36.794 27.149 C 0.0 **** 0.0
13977 H 60.987 35.804 27.477 H 0.0 **** 0.0
13978 H 60.216 37.326 27.985 H 0.0 **** 0.0
13979 H 59.943 36.694 26.343 H 0.0 **** 0.0
13980 H 61.536 37.352 26.791 H 0.0 **** 0.0
13981 C 34.011 69.988 28.634 C 0.0 **** 0.0
13982 H 34.43 69.09 28.178 H 0.0 **** 0.0
13983 H 34.493 70.165 29.595 H 0.0 **** 0.0
13984 H 32.94 69.853 28.783 H 0.0 **** 0.0
13985 H 34.182 70.841 27.978 H 0.0 **** 0.0
13986 C 32.245 23.331 40.589 C 0.0 **** 0.0
13987 H 33.165 23.561 41.126 H 0.0 **** 0.0
13988 H 31.5 24.099 40.799 H 0.0 **** 0.0
13989 H 31.868 22.361 40.913 H 0.0 **** 0.0
13990 H 32.446 23.304 39.518 H 0.0 **** 0.0
13991 C 5.163 66.839 2.408 C 0.0 **** 0.0
13992 H 4.184 66.434 2.665 H 0.0 **** 0.0
13993 H 5.347 66.693 1.343 H 0.0 **** 0.0
13994 H 5.932 66.325 2.984 H 0.0 **** 0.0
13995 H 5.187 67.904 2.638 H 0.0 **** 0.0
13996 C 6.209 77.809 14.801 C 0.0 **** 0.0
13997 H 7.209 78.15 14.533 H 0.0 **** 0.0
13998 H 5.467 78.445 14.317 H 0.0 **** 0.0
13999 H 6.085 77.863 15.882 H 0.0 **** 0.0
14000 H 6.076 76.779 14.471 H 0.0 **** 0.0
14001 C 71.183 89.668 16.494 C 0.0 **** 0.0
14002 H 71.53 90.424 17.199 H 0.0 **** 0.0
14003 H 70.093 89.683 16.453 H 0.0 **** 0.0
14004 H 71.521 88.685 16.821 H 0.0 **** 0.0
14005 H 71.587 89.881 15.505 H 0.0 **** 0.0
14006 C 69.76 27.406 73.138 C 0.0 **** 0.0
14007 H 70.487 26.666 72.801 H 0.0 **** 0.0
14008 H 68.812 27.243 72.625 H 0.0 **** 0.0
14009 H 70.129 28.406 72.912 H 0.0 **** 0.0
14010 H 69.613 27.307 74.213 H 0.0 **** 0.0
14011 C 29.207 50.929 16.904 C 0.0 **** 0.0
14012 H 29.241 51.129 15.833 H 0.0 **** 0.0
14013 H 30.216 50.737 17.269 H 0.0 **** 0.0
14014 H 28.581 50.057 17.09 H 0.0 **** 0.0
14015 H 28.791 51.793 17.421 H 0.0 **** 0.0
14016 C 54.942 98.376 95.96 C 0.0 **** 0.0
14017 H 54.564 98.002 95.009 H 0.0 **** 0.0
14018 H 54.173 98.977 96.446 H 0.0 **** 0.0
14019 H 55.826 98.989 95.784 H 0.0 **** 0.0
14020 H 55.205 97.535 96.602 H 0.0 **** 0.0
14021 C 84.282 71.2 82.737 C 0.0 **** 0.0
14022 H 84.695 70.586 81.936 H 0.0 **** 0.0
14023 H 85.096 71.659 83.298 H 0.0 **** 0.0
14024 H 83.687 70.575 83.403 H 0.0 **** 0.0
14025 H 83.65 71.978 82.309 H 0.0 **** 0.0
14026 C 55.874 74.45 51.479 C 0.0 **** 0.0
14027 H 56.196 74.291 50.45 H 0.0 **** 0.0
14028 H 54.79 74.564 51.506 H 0.0 **** 0.0
14029 H 56.344 75.352 51.871 H 0.0 **** 0.0
14030 H 56.165 73.594 52.088 H 0.0 **** 0.0
14031 C 81.791 37.449 79.273 C 0.0 **** 0.0
14032 H 81.641 38.515 79.449 H 0.0 **** 0.0
14033 H 81.036 37.088 78.575 H 0.0 **** 0.0
14034 H 81.704 36.91 80.216 H 0.0 **** 0.0
14035 H 82.783 37.287 78.852 H 0.0 **** 0.0
14036 C 57.778 82.457 48.32 C 0.0 **** 0.0
14037 H 58.793 82.094 48.477 H 0.0 **** 0.0
14038 H 57.07 81.77 48.786 H 0.0 **** 0.0
14039 H 57.575 82.519 47.251 H 0.0 **** 0.0
14040 H 57.673 83.446 48.768 H 0.0 **** 0.0
14041 C 77.544 8.642 8.289 C 0.0 **** 0.0
14042 H 76.741 9.365 8.43 H 0.0 **** 0.0
14043 H 78.507 9.14 8.407 H 0.0 **** 0.0
14044 H 77.476 8.214 7.289 H 0.0 **** 0.0
14045 H 77.452 7.848 9.031 H 0.0 **** 0.0
14046 C 59.244 44.974 37.704 C 0.0 **** 0.0
14047 H 59.235 45.436 38.691 H 0.0 **** 0.0
14048 H 58.454 45.409 37.092 H 0.0 **** 0.0
14049 H 59.078 43.901 37.804 H 0.0 **** 0.0
14050 H 60.21 45.15 37.23 H 0.0 **** 0.0
14051 C 77.375 74.841 16.232 C 0.0 **** 0.0
14052 H 77.392 74.836 15.142 H 0.0 **** 0.0
14053 H 76.471 74.343 16.583 H 0.0 **** 0.0
14054 H 77.387 75.87 16.591 H 0.0 **** 0.0
14055 H 78.251 74.313 16.611 H 0.0 **** 0.0
14056 C 5.203 65.286 22.821 C 0.0 **** 0.0
14057 H 6.241 64.984 22.686 H 0.0 **** 0.0
14058 H 5.152 66.368 22.94 H 0.0 **** 0.0
14059 H 4.797 64.803 23.71 H 0.0 **** 0.0
14060 H 4.622 64.988 21.948 H 0.0 **** 0.0
14061 C 66.406 9.898 11.429 C 0.0 **** 0.0
14062 H 66.224 9.423 10.465 H 0.0 **** 0.0
14063 H 66.763 9.152 12.139 H 0.0 **** 0.0
14064 H 65.479 10.337 11.799 H 0.0 **** 0.0
14065 H 67.157 10.679 11.313 H 0.0 **** 0.0
14066 C 46.209 55.519 23.145 C 0.0 **** 0.0
14067 H 46.025 55.311 22.09 H 0.0 **** 0.0
14068 H 46.519 56.557 23.261 H 0.0 **** 0.0
14069 H 46.995 54.86 23.513 H 0.0 **** 0.0
14070 H 45.295 55.346 23.713 H 0.0 **** 0.0
14071 C 3.241 27.143 29.173 C 0.0 **** 0.0
14072 H 2.45 27.266 28.433 H 0.0 **** 0.0
14073 H 3.996 27.917 29.03 H 0.0 **** 0.0
14074 H 3.699 26.161 29.056 H 0.0 **** 0.0
14075 H 2.817 27.229 30.174 H 0.0 **** 0.0
14076 C 24.762 30.294 89.4 C 0.0 **** 0.0
14077 H 24.484 29.448 88.772 H 0.0 **** 0.0
14078 H 23.899 30.948 89.53 H 0.0 **** 0.0
14079 H 25.57 30.85 88.925 H 0.0 **** 0.0
14080 H 25.093 29.931 90.373 H 0.0 **** 0.0
14081 C 97.629 65.335 10.69 C 0.0 **** 0.0
14082 H 97.349 65.756 11.655 H 0.0 **** 0.0
14083 H 97.699 66.135 9.952 H 0.0 **** 0.0
14084 H 96.875 64.615 10.374 H 0.0 **** 0.0
14085 H 98.594 64.836 10.778 H 0.0 **** 0.0
14086 C 24.915 49.429 43.662 C 0.0 **** 0.0
14087 H 25.148 48.482 43.174 H 0.0 **** 0.0
14088 H 24.943 50.233 42.926 H 0.0 **** 0.0
14089 H 25.649 49.624 44.443 H 0.0 **** 0.0
14090 H 23.92 49.374 44.103 H 0.0 **** 0.0
14091 C 15.821 29.227 82.465 C 0.0 **** 0.0
14092 H 16.818 29.163 82.03 H 0.0 **** 0.0
14093 H 15.108 29.522 81.696 H 0.0 **** 0.0
14094 H 15.821 29.968 83.265 H 0.0 **** 0.0
14095 H 15.538 28.255 82.87 H 0.0 **** 0.0
14096 C 87.979 41.308 53.742 C 0.0 **** 0.0
14097 H 88.084 41.11 54.809 H 0.0 **** 0.0
14098 H 88.21 42.354 53.542 H 0.0 **** 0.0
14099 H 86.955 41.096 53.433 H 0.0 **** 0.0
14100 H 88.666 40.67 53.186 H 0.0 **** 0.0
14101 C 44.149 1.811 14.71 C 0.0 **** 0.0
14102 H 44.489 2.091 15.707 H 0.0 **** 0.0
14103 H 44.493 2.551 13.987 H 0.0 **** 0.0
14104 H 43.06 1.767 14.697 H 0.0 **** 0.0
14105 H 44.555 0.833 14.45 H 0.0 **** 0.0
14106 C 88.622 89.822 1.03 C 0.0 **** 0.0
14107 H 89.606 89.354 1.036 H 0.0 **** 0.0
14108 H 88.324 90.028 0.001 H 0.0 **** 0.0
14109 H 88.66 90.756 1.591 H 0.0 **** 0.0
14110 H 87.897 89.151 1.491 H 0.0 **** 0.0
14111 C 27.434 3.518 7.577 C 0.0 **** 0.0
14112 H 27.482 2.729 6.826 H 0.0 **** 0.0
14113 H 28.443 3.857 7.811 H 0.0 **** 0.0
14114 H 26.962 3.131 8.48 H 0.0 **** 0.0
14115 H 26.85 4.352 7.191 H 0.0 **** 0.0
14116 C 4.11 39.997 46.622 C 0.0 **** 0.0
14117 H 4.211 39.027 47.108 H 0.0 **** 0.0
14118 H 4.169 39.869 45.541 H 0.0 **** 0.0
14119 H 4.912 40.655 46.955 H 0.0 **** 0.0
14120 H 3.147 40.436 46.884 H 0.0 **** 0.0
14121 C 72.534 41.509 0.906 C 0.0 **** 0.0
14122 H 72.6 40.907 -0.0 H 0.0 **** 0.0
14123 H 73.492 41.998 1.088 H 0.0 **** 0.0
14124 H 72.288 40.867 1.752 H 0.0 **** 0.0
14125 H 71.758 42.264 0.785 H 0.0 **** 0.0
14126 C 37.931 76.417 73.679 C 0.0 **** 0.0
14127 H 37.775 76.263 72.611 H 0.0 **** 0.0
14128 H 38.975 76.219 73.925 H 0.0 **** 0.0
14129 H 37.29 75.738 74.241 H 0.0 **** 0.0
14130 H 37.685 77.446 73.937 H 0.0 **** 0.0
14131 C 8.059 82.198 24.261 C 0.0 **** 0.0
14132 H 9.12 82.125 24.023 H 0.0 **** 0.0
14133 H 7.923 82.873 25.106 H 0.0 **** 0.0
14134 H 7.677 81.211 24.519 H 0.0 **** 0.0
14135 H 7.519 82.583 23.397 H 0.0 **** 0.0
14136 C 71.093 87.423 51.093 C 0.0 **** 0.0
14137 H 71.309 86.793 50.23 H 0.0 **** 0.0
14138 H 70.033 87.35 51.34 H 0.0 **** 0.0
14139 H 71.342 88.458 50.859 H 0.0 **** 0.0
14140 H 71.688 87.09 51.944 H 0.0 **** 0.0
14141 C 51.144 50.805 18.948 C 0.0 **** 0.0
14142 H 51.811 50.558 19.774 H 0.0 **** 0.0
14143 H 51.677 50.69 18.004 H 0.0 **** 0.0
14144 H 50.806 51.836 19.051 H 0.0 **** 0.0
14145 H 50.283 50.137 18.964 H 0.0 **** 0.0
14146 C 59.502 11.319 45.228 C 0.0 **** 0.0
14147 H 59.656 11.463 44.159 H 0.0 **** 0.0
14148 H 59.193 12.261 45.681 H 0.0 **** 0.0
14149 H 60.432 10.982 45.687 H 0.0 **** 0.0
14150 H 58.727 10.568 45.385 H 0.0 **** 0.0
14151 C 39.386 52.035 18.74 C 0.0 **** 0.0
14152 H 39.397 51.876 19.819 H 0.0 **** 0.0
14153 H 38.407 51.763 18.344 H 0.0 **** 0.0
14154 H 40.152 51.416 18.274 H 0.0 **** 0.0
14155 H 39.586 53.085 18.526 H 0.0 **** 0.0
14156 C 93.819 20.374 92.637 C 0.0 **** 0.0
14157 H 93.333 20.615 93.582 H 0.0 **** 0.0
14158 H 94.153 19.336 92.655 H 0.0 **** 0.0
14159 H 94.678 21.03 92.492 H 0.0 **** 0.0
14160 H 93.112 20.515 91.819 H 0.0 **** 0.0
14161 C 81.304 48.261 5.107 C 0.0 **** 0.0
14162 H 82.154 47.717 5.519 H 0.0 **** 0.0
14163 H 80.576 47.552 4.714 H 0.0 **** 0.0
14164 H 81.646 48.915 4.305 H 0.0 **** 0.0
14165 H 80.842 48.859 5.892 H 0.0 **** 0.0
14166 C 85.479 31.338 50.171 C 0.0 **** 0.0
14167 H 85.885 30.768 51.007 H 0.0 **** 0.0
14168 H 84.523 31.774 50.461 H 0.0 **** 0.0
14169 H 85.333 30.677 49.317 H 0.0 **** 0.0
14170 H 86.175 32.132 49.901 H 0.0 **** 0.0
14171 C 60.923 48.412 39.156 C 0.0 **** 0.0
14172 H 60.379 49.06 38.468 H 0.0 **** 0.0
14173 H 61.3 47.544 38.615 H 0.0 **** 0.0
14174 H 60.254 48.084 39.951 H 0.0 **** 0.0
14175 H 61.759 48.962 39.588 H 0.0 **** 0.0
14176 C 43.362 58.993 86.21 C 0.0 **** 0.0
14177 H 42.502 59.198 86.848 H 0.0 **** 0.0
14178 H 43.298 57.973 85.83 H 0.0 **** 0.0
14179 H 44.279 59.108 86.789 H 0.0 **** 0.0
14180 H 43.369 59.693 85.375 H 0.0 **** 0.0
14181 C 0.902 19.455 7.556 C 0.0 **** 0.0
14182 H 0.796 19.999 6.617 H 0.0 **** 0.0
14183 H 1.777 19.824 8.092 H 0.0 **** 0.0
14184 H 1.025 18.393 7.347 H 0.0 **** 0.0
14185 H 0.011 19.605 8.165 H 0.0 **** 0.0
14186 C 78.077 91.778 70.658 C 0.0 **** 0.0
14187 H 77.781 91.161 69.81 H 0.0 **** 0.0
14188 H 78.92 91.312 71.169 H 0.0 **** 0.0
14189 H 77.239 91.872 71.349 H 0.0 **** 0.0
14190 H 78.368 92.767 70.304 H 0.0 **** 0.0
14191 C 94.764 45.588 18.391 C 0.0 **** 0.0
14192 H 94.26 46.541 18.553 H 0.0 **** 0.0
14193 H 95.814 45.768 18.16 H 0.0 **** 0.0
14194 H 94.293 45.065 17.559 H 0.0 **** 0.0
14195 H 94.689 44.98 19.292 H 0.0 **** 0.0
14196 C 63.893 55.336 44.644 C 0.0 **** 0.0
14197 H 63.183 55.692 45.39 H 0.0 **** 0.0
14198 H 64.117 56.142 43.944 H 0.0 **** 0.0
14199 H 63.461 54.494 44.103 H 0.0 **** 0.0
14200 H 64.811 55.018 45.138 H 0.0 **** 0.0
14201 C 26.306 67.549 78.165 C 0.0 **** 0.0
14202 H 27.013 68.186 77.633 H 0.0 **** 0.0
14203 H 25.312 67.996 78.124 H 0.0 **** 0.0
14204 H 26.618 67.449 79.204 H 0.0 **** 0.0
14205 H 26.281 66.565 77.697 H 0.0 **** 0.0
14206 C 88.137 39.128 81.127 C 0.0 **** 0.0
14207 H 87.48 39.06 81.993 H 0.0 **** 0.0
14208 H 87.539 39.28 80.228 H 0.0 **** 0.0
14209 H 88.71 38.206 81.031 H 0.0 **** 0.0
14210 H 88.82 39.968 81.255 H 0.0 **** 0.0
14211 C 2.416 98.381 82.268 C 0.0 **** 0.0
14212 H 2.412 98.437 81.179 H 0.0 **** 0.0
14213 H 2.271 97.346 82.578 H 0.0 **** 0.0
14214 H 1.61 98.997 82.666 H 0.0 **** 0.0
14215 H 3.371 98.744 82.647 H 0.0 **** 0.0
14216 C 34.967 94.343 7.833 C 0.0 **** 0.0
14217 H 36.048 94.362 7.701 H 0.0 **** 0.0
14218 H 34.503 95.046 7.141 H 0.0 **** 0.0
14219 H 34.721 94.626 8.857 H 0.0 **** 0.0
14220 H 34.594 93.338 7.635 H 0.0 **** 0.0
14221 C 54.977 79.524 93.893 C 0.0 **** 0.0
14222 H 54.065 79.045 94.248 H 0.0 **** 0.0
14223 H 55.842 79.027 94.333 H 0.0 **** 0.0
14224 H 54.973 80.574 94.185 H 0.0 **** 0.0
14225 H 55.028 79.448 92.807 H 0.0 **** 0.0
14226 C 71.984 32.627 62.598 C 0.0 **** 0.0
14227 H 72.693 32.359 63.381 H 0.0 **** 0.0
14228 H 71.371 31.76 62.351 H 0.0 **** 0.0
14229 H 72.528 32.952 61.711 H 0.0 **** 0.0
14230 H 71.345 33.437 62.949 H 0.0 **** 0.0
14231 C 8.483 78.028 71.878 C 0.0 **** 0.0
14232 H 9.57 78.08 71.815 H 0.0 **** 0.0
14233 H 8.168 78.25 72.899 H 0.0 **** 0.0
14234 H 8.15 77.027 71.604 H 0.0 **** 0.0
14235 H 8.044 78.757 71.196 H 0.0 **** 0.0
14236 C 84.972 49.546 82.621 C 0.0 **** 0.0
14237 H 84.657 50.515 83.01 H 0.0 **** 0.0
14238 H 84.137 48.847 82.668 H 0.0 **** 0.0
14239 H 85.799 49.166 83.221 H 0.0 **** 0.0
14240 H 85.295 49.658 81.586 H 0.0 **** 0.0
14241 C 47.685 40.998 45.714 C 0.0 **** 0.0
14242 H 47.696 41.434 46.713 H 0.0 **** 0.0
14243 H 46.671 40.685 45.465 H 0.0 **** 0.0
14244 H 48.349 40.134 45.688 H 0.0 **** 0.0
14245 H 48.025 41.739 44.991 H 0.0 **** 0.0
14246 C 43.013 12.531 73.491 C 0.0 **** 0.0
14247 H 43.014 12.665 74.573 H 0.0 **** 0.0
14248 H 42.334 13.253 73.036 H 0.0 **** 0.0
14249 H 42.683 11.521 73.25 H 0.0 **** 0.0
14250 H 44.021 12.686 73.105 H 0.0 **** 0.0
14251 C 27.172 63.223 51.025 C 0.0 **** 0.0
14252 H 26.703 62.776 51.901 H 0.0 **** 0.0
14253 H 26.866 62.678 50.132 H 0.0 **** 0.0
14254 H 28.256 63.174 51.128 H 0.0 **** 0.0
14255 H 26.862 64.265 50.939 H 0.0 **** 0.0
14256 C 82.527 85.798 56.352 C 0.0 **** 0.0
14257 H 82.167 86.751 56.741 H 0.0 **** 0.0
14258 H 82.004 84.982 56.852 H 0.0 **** 0.0
14259 H 83.597 85.712 56.536 H 0.0 **** 0.0
14260 H 82.337 85.749 55.28 H 0.0 **** 0.0
14261 C 44.855 38.992 26.649 C 0.0 **** 0.0
14262 H 44.71 38.425 25.729 H 0.0 **** 0.0
14263 H 43.935 39.523 26.897 H 0.0 **** 0.0
14264 H 45.663 39.71 26.509 H 0.0 **** 0.0
14265 H 45.111 38.31 27.459 H 0.0 **** 0.0
14266 C 27.62 78.885 16.121 C 0.0 **** 0.0
14267 H 27.815 78.833 15.05 H 0.0 **** 0.0
14268 H 27.248 79.878 16.374 H 0.0 **** 0.0
14269 H 28.542 78.691 16.668 H 0.0 **** 0.0
14270 H 26.873 78.138 16.39 H 0.0 **** 0.0
14271 C 89.78 20.868 91.579 C 0.0 **** 0.0
14272 H 90.815 21.175 91.434 H 0.0 **** 0.0
14273 H 89.421 21.24 92.539 H 0.0 **** 0.0
14274 H 89.718 19.78 91.564 H 0.0 **** 0.0
14275 H 89.165 21.278 90.777 H 0.0 **** 0.0
14276 C 84.643 32.062 7.893 C 0.0 **** 0.0
14277 H 84.066 32.66 7.188 H 0.0 **** 0.0
14278 H 84.363 31.013 7.794 H 0.0 **** 0.0
14279 H 84.437 32.399 8.909 H 0.0 **** 0.0
14280 H 85.706 32.176 7.681 H 0.0 **** 0.0
14281 C 45.125 15.492 87.11 C 0.0 **** 0.0
14282 H 45.096 16.444 86.578 H 0.0 **** 0.0
14283 H 44.11 15.112 87.229 H 0.0 **** 0.0
14284 H 45.576 15.638 88.091 H 0.0 **** 0.0
14285 H 45.717 14.776 86.54 H 0.0 **** 0.0
14286 C 72.217 37.709 30.572 C 0.0 **** 0.0
14287 H 73.153 37.922 30.055 H 0.0 **** 0.0
14288 H 72.419 37.526 31.628 H 0.0 **** 0.0
14289 H 71.752 36.826 30.132 H 0.0 **** 0.0
14290 H 71.545 38.561 30.473 H 0.0 **** 0.0
14291 C 42.273 62.958 32.923 C 0.0 **** 0.0
14292 H 43.323 62.742 32.729 H 0.0 **** 0.0
14293 H 41.793 62.076 33.347 H 0.0 **** 0.0
14294 H 41.779 63.227 31.989 H 0.0 **** 0.0
14295 H 42.197 63.788 33.626 H 0.0 **** 0.0
14296 C 69.53 22.922 87.467 C 0.0 **** 0.0
14297 H 68.903 23.234 88.303 H 0.0 **** 0.0
14298 H 69.38 23.601 86.628 H 0.0 **** 0.0
14299 H 69.259 21.909 87.168 H 0.0 **** 0.0
14300 H 70.576 22.943 87.77 H 0.0 **** 0.0
14301 C 9.296 44.228 39.41 C 0.0 **** 0.0
14302 H 8.34 44.464 38.941 H 0.0 **** 0.0
14303 H 9.467 44.906 40.247 H 0.0 **** 0.0
14304 H 10.096 44.344 38.679 H 0.0 **** 0.0
14305 H 9.28 43.2 39.771 H 0.0 **** 0.0
14306 C 20.986 37.885 12.346 C 0.0 **** 0.0
14307 H 21.361 37.892 11.323 H 0.0 **** 0.0
14308 H 21.731 37.435 13.003 H 0.0 **** 0.0
14309 H 20.063 37.307 12.392 H 0.0 **** 0.0
14310 H 20.789 38.908 12.667 H 0.0 **** 0.0
14311 C 88.663 83.707 93.541 C 0.0 **** 0.0
14312 H 89.321 83.581 92.682 H 0.0 **** 0.0
14313 H 89.047 83.127 94.38 H 0.0 **** 0.0
14314 H 87.662 83.359 93.286 H 0.0 **** 0.0
14315 H 88.622 84.761 93.816 H 0.0 **** 0.0
14316 C 25.677 26.577 54.753 C 0.0 **** 0.0
14317 H 25.945 26.299 55.772 H 0.0 **** 0.0
14318 H 26.026 27.59 54.549 H 0.0 **** 0.0
14319 H 24.594 26.535 54.637 H 0.0 **** 0.0
14320 H 26.144 25.884 54.053 H 0.0 **** 0.0
14321 C 48.145 56.329 53.608 C 0.0 **** 0.0
14322 H 48.126 56.903 54.534 H 0.0 **** 0.0
14323 H 47.131 56.233 53.22 H 0.0 **** 0.0
14324 H 48.554 55.337 53.805 H 0.0 **** 0.0
14325 H 48.769 56.841 52.876 H 0.0 **** 0.0
14326 C 90.681 90.64 93.338 C 0.0 **** 0.0
14327 H 90.324 91.388 92.631 H 0.0 **** 0.0
14328 H 90.235 89.674 93.101 H 0.0 **** 0.0
14329 H 90.4 90.932 94.35 H 0.0 **** 0.0
14330 H 91.767 90.565 93.27 H 0.0 **** 0.0
14331 C 51.521 57.218 30.856 C 0.0 **** 0.0
14332 H 52.203 56.833 30.098 H 0.0 **** 0.0
14333 H 50.519 56.829 30.675 H 0.0 **** 0.0
14334 H 51.503 58.307 30.808 H 0.0 **** 0.0
14335 H 51.861 56.904 31.843 H 0.0 **** 0.0
14336 C 38.86 64.819 32.808 C 0.0 **** 0.0
14337 H 38.391 65.014 33.772 H 0.0 **** 0.0
14338 H 38.686 65.664 32.141 H 0.0 **** 0.0
14339 H 38.432 63.916 32.372 H 0.0 **** 0.0
14340 H 39.933 64.681 32.948 H 0.0 **** 0.0
14341 C 74.342 80.271 53.843 C 0.0 **** 0.0
14342 H 75.002 80.693 54.601 H 0.0 **** 0.0
14343 H 74.891 80.156 52.908 H 0.0 **** 0.0
14344 H 73.495 80.939 53.688 H 0.0 **** 0.0
14345 H 73.982 79.298 54.175 H 0.0 **** 0.0
14346 C 1.285 7.297 92.18 C 0.0 **** 0.0
14347 H 2.182 7.607 92.716 H 0.0 **** 0.0
14348 H 0.874 8.148 91.638 H 0.0 **** 0.0
14349 H 0.547 6.928 92.892 H 0.0 **** 0.0
14350 H 1.538 6.505 91.476 H 0.0 **** 0.0
14351 C 76.316 67.758 80.985 C 0.0 **** 0.0
14352 H 75.76 68.389 80.292 H 0.0 **** 0.0
14353 H 77.01 68.374 81.558 H 0.0 **** 0.0
14354 H 76.873 67.007 80.425 H 0.0 **** 0.0
14355 H 75.622 67.264 81.664 H 0.0 **** 0.0
14356 C 21.067 59.753 56.273 C 0.0 **** 0.0
14357 H 20.918 59.334 57.268 H 0.0 **** 0.0
14358 H 21.292 60.817 56.357 H 0.0 **** 0.0
14359 H 20.161 59.618 55.683 H 0.0 **** 0.0
14360 H 21.898 59.243 55.786 H 0.0 **** 0.0
14361 C 50.007 66.931 60.598 C 0.0 **** 0.0
14362 H 49.842 66.567 59.584 H 0.0 **** 0.0
14363 H 51.072 66.895 60.828 H 0.0 **** 0.0
14364 H 49.461 66.303 61.302 H 0.0 **** 0.0
14365 H 49.653 67.959 60.677 H 0.0 **** 0.0
14366 C 57.182 97.276 35.513 C 0.0 **** 0.0
14367 H 57.046 96.91 36.531 H 0.0 **** 0.0
14368 H 57.568 96.471 34.886 H 0.0 **** 0.0
14369 H 57.888 98.106 35.516 H 0.0 **** 0.0
14370 H 56.224 97.615 35.119 H 0.0 **** 0.0
14371 C 24.807 9.366 6.47 C 0.0 **** 0.0
14372 H 24.883 8.508 7.138 H 0.0 **** 0.0
14373 H 25.69 9.411 5.833 H 0.0 **** 0.0
14374 H 24.737 10.28 7.06 H 0.0 **** 0.0
14375 H 23.916 9.265 5.85 H 0.0 **** 0.0
14376 C 30.643 86.339 49.411 C 0.0 **** 0.0
14377 H 29.587 86.109 49.268 H 0.0 **** 0.0
14378 H 30.929 86.107 50.437 H 0.0 **** 0.0
14379 H 30.814 87.398 49.216 H 0.0 **** 0.0
14380 H 31.241 85.742 48.723 H 0.0 **** 0.0
14381 C 63.583 15.642 57.667 C 0.0 **** 0.0
14382 H 64.078 15.448 58.619 H 0.0 **** 0.0
14383 H 64.071 15.066 56.88 H 0.0 **** 0.0
14384 H 63.648 16.704 57.433 H 0.0 **** 0.0
14385 H 62.536 15.348 57.736 H 0.0 **** 0.0
14386 C 36.674 22.441 34.113 C 0.0 **** 0.0
14387 H 37.167 21.742 34.789 H 0.0 **** 0.0
14388 H 37.378 23.222 33.823 H 0.0 **** 0.0
14389 H 35.818 22.891 34.615 H 0.0 **** 0.0
14390 H 36.335 21.909 33.224 H 0.0 **** 0.0
14391 C 27.599 91.572 16.167 C 0.0 **** 0.0
14392 H 27.675 90.682 15.542 H 0.0 **** 0.0
14393 H 28.308 91.498 16.992 H 0.0 **** 0.0
14394 H 26.587 91.653 16.563 H 0.0 **** 0.0
14395 H 27.827 92.455 15.57 H 0.0 **** 0.0
14396 C 47.823 74.711 68.923 C 0.0 **** 0.0
14397 H 48.14 74.671 67.881 H 0.0 **** 0.0
14398 H 46.735 74.774 68.969 H 0.0 **** 0.0
14399 H 48.259 75.588 69.401 H 0.0 **** 0.0
14400 H 48.157 73.812 69.439 H 0.0 **** 0.0
14401 C 77.235 39.055 77.326 C 0.0 **** 0.0
14402 H 77.14 38.974 76.243 H 0.0 **** 0.0
14403 H 77.539 38.092 77.737 H 0.0 **** 0.0
14404 H 76.275 39.346 77.754 H 0.0 **** 0.0
14405 H 77.985 39.808 77.57 H 0.0 **** 0.0
14406 C 2.953 10.765 46.252 C 0.0 **** 0.0
14407 H 2.892 9.684 46.378 H 0.0 **** 0.0
14408 H 3.907 11.023 45.79 H 0.0 **** 0.0
14409 H 2.877 11.25 47.225 H 0.0 **** 0.0
14410 H 2.137 11.103 45.613 H 0.0 **** 0.0
14411 C 56.427 44.357 50.251 C 0.0 **** 0.0
14412 H 57.165 45.101 50.554 H 0.0 **** 0.0
14413 H 55.425 44.738 50.447 H 0.0 **** 0.0
14414 H 56.585 43.439 50.818 H 0.0 **** 0.0
14415 H 56.536 44.15 49.187 H 0.0 **** 0.0
14416 C 17.943 35.377 56.797 C 0.0 **** 0.0
14417 H 16.934 35.147 56.454 H 0.0 **** 0.0
14418 H 17.899 36.162 57.552 H 0.0 **** 0.0
14419 H 18.545 35.717 55.954 H 0.0 **** 0.0
14420 H 18.393 34.483 57.228 H 0.0 **** 0.0
14421 C 73.749 42.861 5.153 C 0.0 **** 0.0
14422 H 74.626 43.046 5.775 H 0.0 **** 0.0
14423 H 73.836 43.428 4.226 H 0.0 **** 0.0
14424 H 72.853 43.174 5.688 H 0.0 **** 0.0
14425 H 73.684 41.797 4.925 H 0.0 **** 0.0
14426 C 42.33 18.11 75.742 C 0.0 **** 0.0
14427 H 42.476 18.053 76.82 H 0.0 **** 0.0
14428 H 42.687 19.074 75.378 H 0.0 **** 0.0
14429 H 41.27 18.005 75.512 H 0.0 **** 0.0
14430 H 42.889 17.309 75.257 H 0.0 **** 0.0
14431 C 94.009 40.3 7.991 C 0.0 **** 0.0
14432 H 94.657 40.472 8.85 H 0.0 **** 0.0
14433 H 93.1 40.893 8.097 H 0.0 **** 0.0
14434 H 93.75 39.243 7.938 H 0.0 **** 0.0
14435 H 94.53 40.593 7.079 H 0.0 **** 0.0
14436 C 90.584 17.416 49.994 C 0.0 **** 0.0
14437 H 90.699 17.171 48.938 H 0.0 **** 0.0
14438 H 90.803 16.535 50.598 H 0.0 **** 0.0
14439 H 89.561 17.741 50.182 H 0.0 **** 0.0
14440 H 91.273 18.219 50.257 H 0.0 **** 0.0
14441 C 79.737 45.196 29.215 C 0.0 **** 0.0
14442 H 78.686 45.061 28.961 H 0.0 **** 0.0
14443 H 80.344 45.093 28.315 H 0.0 **** 0.0
14444 H 80.034 44.441 29.943 H 0.0 **** 0.0
14445 H 79.883 46.189 29.641 H 0.0 **** 0.0
14446 C 18.404 46.533 14.812 C 0.0 **** 0.0
14447 H 19.457 46.619 15.082 H 0.0 **** 0.0
14448 H 17.988 47.528 14.654 H 0.0 **** 0.0
14449 H 17.862 46.036 15.617 H 0.0 **** 0.0
14450 H 18.31 45.95 13.896 H 0.0 **** 0.0
14451 C 46.329 22.085 71.384 C 0.0 **** 0.0
14452 H 46.375 22.114 72.472 H 0.0 **** 0.0
14453 H 47.269 21.697 70.991 H 0.0 **** 0.0
14454 H 46.163 23.092 71.001 H 0.0 **** 0.0
14455 H 45.51 21.438 71.072 H 0.0 **** 0.0
14456 C 60.36 44.478 63.193 C 0.0 **** 0.0
14457 H 59.692 43.631 63.036 H 0.0 **** 0.0
14458 H 61.17 44.44 62.465 H 0.0 **** 0.0
14459 H 60.773 44.433 64.2 H 0.0 **** 0.0
14460 H 59.803 45.407 63.07 H 0.0 **** 0.0
14461 C 77.924 37.651 70.763 C 0.0 **** 0.0
14462 H 77.804 38.24 71.672 H 0.0 **** 0.0
14463 H 77.301 38.07 69.974 H 0.0 **** 0.0
14464 H 77.624 36.621 70.956 H 0.0 **** 0.0
14465 H 78.969 37.672 70.452 H 0.0 **** 0.0
14466 C 51.925 58.495 58.238 C 0.0 **** 0.0
14467 H 52.386 59.373 58.69 H 0.0 **** 0.0
14468 H 52.234 57.602 58.781 H 0.0 **** 0.0
14469 H 52.239 58.414 57.197 H 0.0 **** 0.0
14470 H 50.84 58.591 58.283 H 0.0 **** 0.0
14471 C 65.627 9.68 53.354 C 0.0 **** 0.0
14472 H 66.311 10.312 53.921 H 0.0 **** 0.0
14473 H 64.959 9.161 54.042 H 0.0 **** 0.0
14474 H 66.198 8.95 52.78 H 0.0 **** 0.0
14475 H 65.04 10.298 52.675 H 0.0 **** 0.0
14476 C 65.364 53.822 54.159 C 0.0 **** 0.0
14477 H 65.915 53.575 53.252 H 0.0 **** 0.0
14478 H 66.057 53.885 54.999 H 0.0 **** 0.0
14479 H 64.623 53.048 54.357 H 0.0 **** 0.0
14480 H 64.862 54.781 54.03 H 0.0 **** 0.0
14481 C 94.96 75.58 37.124 C 0.0 **** 0.0
14482 H 95.605 74.987 36.474 H 0.0 **** 0.0
14483 H 95.315 76.61 37.145 H 0.0 **** 0.0
14484 H 94.982 75.166 38.132 H 0.0 **** 0.0
14485 H 93.939 75.554 36.743 H 0.0 **** 0.0
14486 C 2.891 83.598 16.585 C 0.0 **** 0.0
14487 H 3.145 84.219 15.726 H 0.0 **** 0.0
14488 H 2.98 82.546 16.312 H 0.0 **** 0.0
14489 H 1.866 83.807 16.893 H 0.0 **** 0.0
14490 H 3.571 83.819 17.407 H 0.0 **** 0.0
14491 C 74.064 24.879 61.729 C 0.0 **** 0.0
14492 H 73.994 24.75 60.649 H 0.0 **** 0.0
14493 H 73.076 24.762 62.174 H 0.0 **** 0.0
14494 H 74.448 25.875 61.951 H 0.0 **** 0.0
14495 H 74.74 24.13 62.141 H 0.0 **** 0.0
14496 C 46.071 50.448 34.723 C 0.0 **** 0.0
14497 H 45.963 50.44 35.808 H 0.0 **** 0.0
14498 H 45.796 49.471 34.324 H 0.0 **** 0.0
14499 H 47.106 50.669 34.463 H 0.0 **** 0.0
14500 H 45.418 51.211 34.298 H 0.0 **** 0.0
14501 C 66.088 0.781 50.544 C 0.0 **** 0.0
14502 H 66.841 0.001 50.435 H 0.0 **** 0.0
14503 H 66.221 1.283 51.503 H 0.0 **** 0.0
14504 H 65.094 0.334 50.502 H 0.0 **** 0.0
14505 H 66.195 1.505 49.736 H 0.0 **** 0.0
14506 C 93.405 26.316 29.187 C 0.0 **** 0.0
14507 H 93.384 26.28 30.277 H 0.0 **** 0.0
14508 H 92.467 26.732 28.819 H 0.0 **** 0.0
14509 H 93.535 25.307 28.794 H 0.0 **** 0.0
14510 H 94.234 26.943 28.861 H 0.0 **** 0.0
14511 C 79.936 56.975 88.413 C 0.0 **** 0.0
14512 H 79.1 56.634 89.025 H 0.0 **** 0.0
14513 H 79.726 56.767 87.364 H 0.0 **** 0.0
14514 H 80.843 56.451 88.713 H 0.0 **** 0.0
14515 H 80.073 58.047 88.552 H 0.0 **** 0.0
14516 C 51.413 72.23 42.033 C 0.0 **** 0.0
14517 H 51.205 72.744 41.094 H 0.0 **** 0.0
14518 H 51.022 71.213 41.984 H 0.0 **** 0.0
14519 H 50.933 72.765 42.853 H 0.0 **** 0.0
14520 H 52.489 72.199 42.199 H 0.0 **** 0.0
14521 C 1.758 22.889 83.258 C 0.0 **** 0.0
14522 H 2.24 23.56 82.547 H 0.0 **** 0.0
14523 H 0.713 22.754 82.979 H 0.0 **** 0.0
14524 H 1.815 23.318 84.258 H 0.0 **** 0.0
14525 H 2.265 21.924 83.247 H 0.0 **** 0.0
14526 C 81.301 29.733 88.84 C 0.0 **** 0.0
14527 H 80.434 29.082 88.955 H 0.0 **** 0.0
14528 H 81.945 29.636 89.714 H 0.0 **** 0.0
14529 H 80.97 30.767 88.745 H 0.0 **** 0.0
14530 H 81.855 29.445 87.946 H 0.0 **** 0.0
14531 C 82.026 73.477 56.047 C 0.0 **** 0.0
14532 H 83.07 73.283 56.291 H 0.0 **** 0.0
14533 H 81.384 72.903 56.716 H 0.0 **** 0.0
14534 H 81.833 73.18 55.016 H 0.0 **** 0.0
14535 H 81.816 74.54 56.165 H 0.0 **** 0.0
14536 C 75.943 26.52 20.806 C 0.0 **** 0.0
14537 H 76.958 26.202 21.046 H 0.0 **** 0.0
14538 H 75.471 25.774 20.167 H 0.0 **** 0.0
14539 H 75.976 27.477 20.286 H 0.0 **** 0.0
14540 H 75.369 26.626 21.727 H 0.0 **** 0.0
14541 C 25.047 74.17 12.319 C 0.0 **** 0.0
14542 H 24.07 74.064 12.792 H 0.0 **** 0.0
14543 H 25.741 74.631 13.021 H 0.0 **** 0.0
14544 H 24.955 74.798 11.433 H 0.0 **** 0.0
14545 H 25.419 73.187 12.031 H 0.0 **** 0.0
14546 C 65.203 41.4 43.495 C 0.0 **** 0.0
14547 H 66.239 41.691 43.319 H 0.0 **** 0.0
14548 H 65.158 40.333 43.71 H 0.0 **** 0.0
14549 H 64.609 41.618 42.607 H 0.0 **** 0.0
14550 H 64.808 41.959 44.343 H 0.0 **** 0.0
14551 C 11.258 89.944 85.054 C 0.0 **** 0.0
14552 H 10.585 89.373 85.694 H 0.0 **** 0.0
14553 H 12.252 89.498 85.084 H 0.0 **** 0.0
14554 H 11.31 90.973 85.407 H 0.0 **** 0.0
14555 H 10.884 89.929 84.03 H 0.0 **** 0.0
14556 C 91.429 41.644 59.501 C 0.0 **** 0.0
14557 H 91.592 42.716 59.609 H 0.0 **** 0.0
14558 H 91.397 41.18 60.487 H 0.0 **** 0.0
14559 H 92.243 41.21 58.92 H 0.0 **** 0.0
14560 H 90.483 41.471 58.987 H 0.0 **** 0.0
14561 C 55.64 29.519 29.888 C 0.0 **** 0.0
14562 H 55.247 30.22 29.151 H 0.0 **** 0.0
14563 H 54.951 28.681 29.995 H 0.0 **** 0.0
14564 H 55.749 30.025 30.848 H 0.0 **** 0.0
14565 H 56.612 29.152 29.558 H 0.0 **** 0.0
14566 C 22.57 34.746 55.851 C 0.0 **** 0.0
14567 H 23.018 34.063 56.573 H 0.0 **** 0.0
14568 H 22.115 34.172 55.044 H 0.0 **** 0.0
14569 H 23.342 35.399 55.443 H 0.0 **** 0.0
14570 H 21.808 35.348 56.345 H 0.0 **** 0.0
14571 C 67.169 93.709 14.137 C 0.0 **** 0.0
14572 H 66.94 93.721 15.202 H 0.0 **** 0.0
14573 H 66.251 93.553 13.57 H 0.0 **** 0.0
14574 H 67.869 92.9 13.925 H 0.0 **** 0.0
14575 H 67.616 94.661 13.851 H 0.0 **** 0.0
14576 C 54.179 68.244 26.138 C 0.0 **** 0.0
14577 H 53.927 68.127 27.192 H 0.0 **** 0.0
14578 H 55.162 67.812 25.95 H 0.0 **** 0.0
14579 H 54.193 69.304 25.884 H 0.0 **** 0.0
14580 H 53.434 67.734 25.527 H 0.0 **** 0.0
14581 C 66.227 90.686 62.941 C 0.0 **** 0.0
14582 H 66.315 90.642 61.856 H 0.0 **** 0.0
14583 H 65.722 91.609 63.228 H 0.0 **** 0.0
14584 H 67.222 90.662 63.387 H 0.0 **** 0.0
14585 H 65.651 89.831 63.294 H 0.0 **** 0.0
14586 C 69.193 27.767 21.345 C 0.0 **** 0.0
14587 H 68.859 28.648 20.797 H 0.0 **** 0.0
14588 H 68.413 27.006 21.319 H 0.0 **** 0.0
14589 H 69.4 28.041 22.38 H 0.0 **** 0.0
14590 H 70.099 27.375 20.884 H 0.0 **** 0.0
14591 C 5.656 18.398 16.518 C 0.0 **** 0.0
14592 H 6.271 18.647 15.653 H 0.0 **** 0.0
14593 H 5.428 17.332 16.507 H 0.0 **** 0.0
14594 H 4.728 18.969 16.479 H 0.0 **** 0.0
14595 H 6.197 18.646 17.431 H 0.0 **** 0.0
14596 C 44.839 45.511 65.502 C 0.0 **** 0.0
14597 H 44.925 45.117 66.514 H 0.0 **** 0.0
14598 H 43.807 45.812 65.316 H 0.0 **** 0.0
14599 H 45.127 44.741 64.786 H 0.0 **** 0.0
14600 H 45.495 46.374 65.391 H 0.0 **** 0.0
14601 C 53.9 41.315 20.122 C 0.0 **** 0.0
14602 H 54.137 41.29 19.059 H 0.0 **** 0.0
14603 H 52.828 41.464 20.252 H 0.0 **** 0.0
14604 H 54.441 42.135 20.595 H 0.0 **** 0.0
14605 H 54.195 40.372 20.582 H 0.0 **** 0.0
14606 C 9.271 56.323 31.005 C 0.0 **** 0.0
14607 H 8.806 56.608 31.949 H 0.0 **** 0.0
14608 H 9.731 57.2 30.548 H 0.0 **** 0.0
14609 H 8.514 55.918 30.334 H 0.0 **** 0.0
14610 H 10.034 55.567 31.19 H 0.0 **** 0.0
14611 C 80.518 80.961 26.407 C 0.0 **** 0.0
14612 H 81.142 81.601 25.783 H 0.0 **** 0.0
14613 H 80.378 81.43 27.381 H 0.0 **** 0.0
14614 H 81.005 79.994 26.536 H 0.0 **** 0.0
14615 H 79.549 80.819 25.929 H 0.0 **** 0.0
14616 C 16.633 33.471 75.862 C 0.0 **** 0.0
14617 H 16.521 32.681 76.604 H 0.0 **** 0.0
14618 H 17.128 34.33 76.317 H 0.0 **** 0.0
14619 H 15.65 33.769 75.497 H 0.0 **** 0.0
14620 H 17.235 33.105 75.03 H 0.0 **** 0.0
14621 C 63.474 2.391 48.009 C 0.0 **** 0.0
14622 H 63.379 2.887 48.975 H 0.0 **** 0.0
14623 H 63.355 1.315 48.14 H 0.0 **** 0.0
14624 H 64.458 2.599 47.589 H 0.0 **** 0.0
14625 H 62.704 2.762 47.333 H 0.0 **** 0.0
14626 C 18.012 49.971 45.344 C 0.0 **** 0.0
14627 H 18.163 49.669 44.307 H 0.0 **** 0.0
14628 H 17.149 49.445 45.753 H 0.0 **** 0.0
14629 H 17.836 51.046 45.387 H 0.0 **** 0.0
14630 H 18.899 49.724 45.927 H 0.0 **** 0.0
14631 C 95.876 87.145 37.838 C 0.0 **** 0.0
14632 H 96.265 88.16 37.758 H 0.0 **** 0.0
14633 H 96.199 86.705 38.782 H 0.0 **** 0.0
14634 H 96.253 86.545 37.01 H 0.0 **** 0.0
14635 H 94.787 87.17 37.802 H 0.0 **** 0.0
14636 C 59.804 90.936 34.421 C 0.0 **** 0.0
14637 H 59.315 91.574 33.685 H 0.0 **** 0.0
14638 H 60.755 90.583 34.02 H 0.0 **** 0.0
14639 H 59.164 90.083 34.643 H 0.0 **** 0.0
14640 H 59.982 91.505 35.333 H 0.0 **** 0.0
14641 C 30.553 57.821 20.172 C 0.0 **** 0.0
14642 H 31.267 57.263 20.778 H 0.0 **** 0.0
14643 H 29.737 58.171 20.804 H 0.0 **** 0.0
14644 H 30.156 57.173 19.391 H 0.0 **** 0.0
14645 H 31.053 58.675 19.717 H 0.0 **** 0.0
14646 C 15.781 49.117 84.392 C 0.0 **** 0.0
14647 H 15.671 48.057 84.619 H 0.0 **** 0.0
14648 H 15.852 49.252 83.312 H 0.0 **** 0.0
14649 H 16.686 49.497 84.866 H 0.0 **** 0.0
14650 H 14.916 49.661 84.771 H 0.0 **** 0.0
14651 C 16.325 4.135 1.005 C 0.0 **** 0.0
14652 H 16.009 4.411 -0.0 H 0.0 **** 0.0
14653 H 17.148 3.423 0.944 H 0.0 **** 0.0
14654 H 15.489 3.68 1.537 H 0.0 **** 0.0
14655 H 16.654 5.026 1.54 H 0.0 **** 0.0
14656 C 28.367 47.995 48.375 C 0.0 **** 0.0
14657 H 27.579 48.16 47.64 H 0.0 **** 0.0
14658 H 28.398 48.836 49.068 H 0.0 **** 0.0
14659 H 29.327 47.91 47.864 H 0.0 **** 0.0
14660 H 28.165 47.077 48.925 H 0.0 **** 0.0
14661 C 48.599 50.716 24.208 C 0.0 **** 0.0
14662 H 48.719 49.811 23.613 H 0.0 **** 0.0
14663 H 49.475 51.353 24.081 H 0.0 **** 0.0
14664 H 48.494 50.448 25.26 H 0.0 **** 0.0
14665 H 47.709 51.252 23.879 H 0.0 **** 0.0
14666 C 87.978 96.13 52.8 C 0.0 **** 0.0
14667 H 87.808 96.121 53.877 H 0.0 **** 0.0
14668 H 88.444 95.191 52.499 H 0.0 **** 0.0
14669 H 88.634 96.961 52.543 H 0.0 **** 0.0
14670 H 87.025 96.245 52.284 H 0.0 **** 0.0
14671 C 66.083 60.304 9.487 C 0.0 **** 0.0
14672 H 66.044 59.762 10.432 H 0.0 **** 0.0
14673 H 66.978 60.013 8.939 H 0.0 **** 0.0
14674 H 66.109 61.376 9.685 H 0.0 **** 0.0
14675 H 65.199 60.066 8.895 H 0.0 **** 0.0
14676 C 55.684 66.99 46.201 C 0.0 **** 0.0
14677 H 55.614 67.072 45.117 H 0.0 **** 0.0
14678 H 54.681 66.966 46.629 H 0.0 **** 0.0
14679 H 56.227 67.849 46.596 H 0.0 **** 0.0
14680 H 56.213 66.074 46.463 H 0.0 **** 0.0
14681 C 89.33 40.678 77.893 C 0.0 **** 0.0
14682 H 88.953 39.995 78.655 H 0.0 **** 0.0
14683 H 88.585 41.448 77.695 H 0.0 **** 0.0
14684 H 89.533 40.124 76.977 H 0.0 **** 0.0
14685 H 90.25 41.143 78.247 H 0.0 **** 0.0
14686 C 73.285 63.642 44.101 C 0.0 **** 0.0
14687 H 72.501 64.23 43.623 H 0.0 **** 0.0
14688 H 73.197 62.6 43.793 H 0.0 **** 0.0
14689 H 73.182 63.711 45.184 H 0.0 **** 0.0
14690 H 74.26 64.028 43.804 H 0.0 **** 0.0
14691 C 51.804 17.539 40.107 C 0.0 **** 0.0
14692 H 51.201 18.191 39.475 H 0.0 **** 0.0
14693 H 52.767 17.359 39.628 H 0.0 **** 0.0
14694 H 51.286 16.591 40.25 H 0.0 **** 0.0
14695 H 51.962 18.017 41.074 H 0.0 **** 0.0
14696 C 44.796 20.21 52.984 C 0.0 **** 0.0
14697 H 44.042 20.91 52.623 H 0.0 **** 0.0
14698 H 45.788 20.581 52.726 H 0.0 **** 0.0
14699 H 44.639 19.236 52.519 H 0.0 **** 0.0
14700 H 44.713 20.114 54.066 H 0.0 **** 0.0
14701 C 90.504 59.218 26.389 C 0.0 **** 0.0
14702 H 91.042 60.073 26.797 H 0.0 **** 0.0
14703 H 89.439 59.446 26.345 H 0.0 **** 0.0
14704 H 90.664 58.35 27.028 H 0.0 **** 0.0
14705 H 90.871 59.003 25.386 H 0.0 **** 0.0
14706 C 82.061 24.965 16.439 C 0.0 **** 0.0
14707 H 82.647 24.172 16.904 H 0.0 **** 0.0
14708 H 81.625 25.596 17.213 H 0.0 **** 0.0
14709 H 81.266 24.525 15.837 H 0.0 **** 0.0
14710 H 82.708 25.568 15.801 H 0.0 **** 0.0
14711 C 50.844 28.734 84.678 C 0.0 **** 0.0
14712 H 50.619 28.762 85.744 H 0.0 **** 0.0
14713 H 50.193 28.009 84.189 H 0.0 **** 0.0
14714 H 51.885 28.443 84.535 H 0.0 **** 0.0
14715 H 50.679 29.721 84.246 H 0.0 **** 0.0
14716 C 35.761 46.177 5.214 C 0.0 **** 0.0
14717 H 35.752 46.108 4.126 H 0.0 **** 0.0
14718 H 35.136 45.388 5.633 H 0.0 **** 0.0
14719 H 35.372 47.149 5.519 H 0.0 **** 0.0
14720 H 36.782 46.064 5.577 H 0.0 **** 0.0
14721 C 62.268 40.332 43.895 C 0.0 **** 0.0
14722 H 61.403 40.396 44.555 H 0.0 **** 0.0
14723 H 62.032 39.685 43.049 H 0.0 **** 0.0
14724 H 63.114 39.918 44.444 H 0.0 **** 0.0
14725 H 62.522 41.328 43.532 H 0.0 **** 0.0
14726 C 15.276 70.27 50.045 C 0.0 **** 0.0
14727 H 14.433 69.619 50.277 H 0.0 **** 0.0
14728 H 14.907 71.258 49.77 H 0.0 **** 0.0
14729 H 15.842 69.849 49.214 H 0.0 **** 0.0
14730 H 15.921 70.353 50.92 H 0.0 **** 0.0
14731 C 76.962 57.33 28.374 C 0.0 **** 0.0
14732 H 77.713 57.25 29.16 H 0.0 **** 0.0
14733 H 77.081 56.504 27.674 H 0.0 **** 0.0
14734 H 77.088 58.276 27.846 H 0.0 **** 0.0
14735 H 75.967 57.292 28.817 H 0.0 **** 0.0
14736 C 4.659 10.284 16.626 C 0.0 **** 0.0
14737 H 4.818 9.909 17.637 H 0.0 **** 0.0
14738 H 3.601 10.5 16.481 H 0.0 **** 0.0
14739 H 4.979 9.532 15.906 H 0.0 **** 0.0
14740 H 5.24 11.195 16.482 H 0.0 **** 0.0
14741 C 6.326 34.527 44.982 C 0.0 **** 0.0
14742 H 7.256 33.979 45.134 H 0.0 **** 0.0
14743 H 6.431 35.188 44.121 H 0.0 **** 0.0
14744 H 6.105 35.119 45.871 H 0.0 **** 0.0
14745 H 5.514 33.822 44.804 H 0.0 **** 0.0
14746 C 12.257 92.409 48.026 C 0.0 **** 0.0
14747 H 11.863 93.425 48.023 H 0.0 **** 0.0
14748 H 11.849 91.859 47.178 H 0.0 **** 0.0
14749 H 11.973 91.912 48.953 H 0.0 **** 0.0
14750 H 13.344 92.441 47.95 H 0.0 **** 0.0
14751 C 2.392 89.094 33.53 C 0.0 **** 0.0
14752 H 2.726 88.103 33.84 H 0.0 **** 0.0
14753 H 1.429 89.01 33.026 H 0.0 **** 0.0
14754 H 3.123 89.527 32.847 H 0.0 **** 0.0
14755 H 2.289 89.733 34.407 H 0.0 **** 0.0
14756 C 58.968 14.416 59.14 C 0.0 **** 0.0
14757 H 59.272 13.394 58.914 H 0.0 **** 0.0
14758 H 59.659 15.113 58.665 H 0.0 **** 0.0
14759 H 58.981 14.569 60.219 H 0.0 **** 0.0
14760 H 57.96 14.587 58.761 H 0.0 **** 0.0
14761 C 80.834 52.096 71.934 C 0.0 **** 0.0
14762 H 81.8 52.519 72.209 H 0.0 **** 0.0
14763 H 80.177 52.891 71.58 H 0.0 **** 0.0
14764 H 80.387 51.615 72.804 H 0.0 **** 0.0
14765 H 80.972 51.359 71.143 H 0.0 **** 0.0
14766 C 77.892 74.027 19.34 C 0.0 **** 0.0
14767 H 78.344 74.41 20.254 H 0.0 **** 0.0
14768 H 78.588 73.348 18.847 H 0.0 **** 0.0
14769 H 77.659 74.857 18.674 H 0.0 **** 0.0
14770 H 76.975 73.491 19.586 H 0.0 **** 0.0
14771 C 43.253 3.751 91.765 C 0.0 **** 0.0
14772 H 43.817 3.294 90.952 H 0.0 **** 0.0
14773 H 42.775 4.663 91.407 H 0.0 **** 0.0
14774 H 43.929 3.993 92.585 H 0.0 **** 0.0
14775 H 42.492 3.055 92.115 H 0.0 **** 0.0
14776 C 27.072 43.143 94.951 C 0.0 **** 0.0
14777 H 26.635 43.754 94.161 H 0.0 **** 0.0
14778 H 28.145 43.328 95.002 H 0.0 **** 0.0
14779 H 26.894 42.09 94.735 H 0.0 **** 0.0
14780 H 26.612 43.402 95.905 H 0.0 **** 0.0
14781 C 58.891 65.589 76.252 C 0.0 **** 0.0
14782 H 58.794 66.673 76.311 H 0.0 **** 0.0
14783 H 59.875 65.293 76.617 H 0.0 **** 0.0
14784 H 58.776 65.271 75.216 H 0.0 **** 0.0
14785 H 58.12 65.121 76.863 H 0.0 **** 0.0
14786 C 27.841 5.128 55.771 C 0.0 **** 0.0
14787 H 28.885 5.374 55.962 H 0.0 **** 0.0
14788 H 27.512 4.367 56.479 H 0.0 **** 0.0
14789 H 27.738 4.747 54.754 H 0.0 **** 0.0
14790 H 27.23 6.023 55.887 H 0.0 **** 0.0
14791 C 91.158 88.792 11.302 C 0.0 **** 0.0
14792 H 91.124 87.988 12.037 H 0.0 **** 0.0
14793 H 90.142 89.077 11.029 H 0.0 **** 0.0
14794 H 91.692 88.451 10.415 H 0.0 **** 0.0
14795 H 91.675 89.652 11.729 H 0.0 **** 0.0
14796 C 50.901 69.047 78.867 C 0.0 **** 0.0
14797 H 51.432 68.365 78.203 H 0.0 **** 0.0
14798 H 51.581 69.831 79.202 H 0.0 **** 0.0
14799 H 50.527 68.496 79.73 H 0.0 **** 0.0
14800 H 50.064 69.496 78.332 H 0.0 **** 0.0
14801 C 92.358 7.328 95.727 C 0.0 **** 0.0
14802 H 92.75 7.767 96.645 H 0.0 **** 0.0
14803 H 93.12 6.693 95.274 H 0.0 **** 0.0
14804 H 92.086 8.122 95.032 H 0.0 **** 0.0
14805 H 91.477 6.73 95.959 H 0.0 **** 0.0
14806 C 7.713 72.621 51.778 C 0.0 **** 0.0
14807 H 7.184 73.574 51.787 H 0.0 **** 0.0
14808 H 6.99 71.805 51.784 H 0.0 **** 0.0
14809 H 8.349 72.55 52.66 H 0.0 **** 0.0
14810 H 8.328 72.556 50.88 H 0.0 **** 0.0
14811 C 13.508 22.662 53.974 C 0.0 **** 0.0
14812 H 14.304 23.403 54.043 H 0.0 **** 0.0
14813 H 12.799 22.962 53.202 H 0.0 **** 0.0
14814 H 12.994 22.593 54.933 H 0.0 **** 0.0
14815 H 13.935 21.692 53.72 H 0.0 **** 0.0
14816 C 21.065 46.063 87.821 C 0.0 **** 0.0
14817 H 20.475 45.334 87.266 H 0.0 **** 0.0
14818 H 21.964 45.583 88.209 H 0.0 **** 0.0
14819 H 20.474 46.453 88.65 H 0.0 **** 0.0
14820 H 21.347 46.881 87.158 H 0.0 **** 0.0
14821 C 8.589 34.143 0.8 C 0.0 **** 0.0
14822 H 7.948 34.952 1.15 H 0.0 **** 0.0
14823 H 9.232 34.51 0.0 H 0.0 **** 0.0
14824 H 7.971 33.327 0.425 H 0.0 **** 0.0
14825 H 9.204 33.784 1.626 H 0.0 **** 0.0
14826 C 69.655 21.36 67.036 C 0.0 **** 0.0
14827 H 69.697 21.281 65.95 H 0.0 **** 0.0
14828 H 69.147 22.284 67.314 H 0.0 **** 0.0
14829 H 70.668 21.367 67.439 H 0.0 **** 0.0
14830 H 69.109 20.509 67.442 H 0.0 **** 0.0
14831 C 46.151 36.474 23.168 C 0.0 **** 0.0
14832 H 46.246 37.058 22.253 H 0.0 **** 0.0
14833 H 46.706 36.962 23.97 H 0.0 **** 0.0
14834 H 46.554 35.474 23.003 H 0.0 **** 0.0
14835 H 45.1 36.4 23.445 H 0.0 **** 0.0
14836 C 23.736 83.097 18.128 C 0.0 **** 0.0
14837 H 22.931 83.769 17.831 H 0.0 **** 0.0
14838 H 24.045 83.329 19.148 H 0.0 **** 0.0
14839 H 24.583 83.224 17.454 H 0.0 **** 0.0
14840 H 23.384 82.067 18.081 H 0.0 **** 0.0
14841 C 96.931 34.681 4.629 C 0.0 **** 0.0
14842 H 96.215 34.804 3.816 H 0.0 **** 0.0
14843 H 97.614 33.866 4.391 H 0.0 **** 0.0
14844 H 96.397 34.451 5.551 H 0.0 **** 0.0
14845 H 97.496 35.604 4.758 H 0.0 **** 0.0
14846 C 89.868 67.383 35.983 C 0.0 **** 0.0
14847 H 89.13 67.141 35.219 H 0.0 **** 0.0
14848 H 90.667 67.979 35.541 H 0.0 **** 0.0
14849 H 90.284 66.462 36.391 H 0.0 **** 0.0
14850 H 89.391 67.95 36.782 H 0.0 **** 0.0
14851 C 12.649 76.233 15.04 C 0.0 **** 0.0
14852 H 12.567 76.158 16.124 H 0.0 **** 0.0
14853 H 13.133 77.174 14.777 H 0.0 **** 0.0
14854 H 11.653 76.2 14.597 H 0.0 **** 0.0
14855 H 13.242 75.4 14.663 H 0.0 **** 0.0
14856 C 74.843 22.01 32.251 C 0.0 **** 0.0
14857 H 73.843 22.103 32.675 H 0.0 **** 0.0
14858 H 75.106 20.956 32.169 H 0.0 **** 0.0
14859 H 75.559 22.515 32.899 H 0.0 **** 0.0
14860 H 74.862 22.469 31.262 H 0.0 **** 0.0
14861 C 10.036 59.272 79.387 C 0.0 **** 0.0
14862 H 10.202 58.256 79.746 H 0.0 **** 0.0
14863 H 9.195 59.279 78.693 H 0.0 **** 0.0
14864 H 10.931 59.628 78.877 H 0.0 **** 0.0
14865 H 9.816 59.924 80.232 H 0.0 **** 0.0
14866 C 56.785 75.469 70.708 C 0.0 **** 0.0
14867 H 57.259 75.431 69.727 H 0.0 **** 0.0
14868 H 55.913 76.123 70.664 H 0.0 **** 0.0
14869 H 57.494 75.857 71.439 H 0.0 **** 0.0
14870 H 56.474 74.467 71.0 H 0.0 **** 0.0
14871 C 31.607 8.281 37.285 C 0.0 **** 0.0
14872 H 31.19 7.678 36.478 H 0.0 **** 0.0
14873 H 32.317 7.682 37.856 H 0.0 **** 0.0
14874 H 30.803 8.616 37.941 H 0.0 **** 0.0
14875 H 32.117 9.147 36.864 H 0.0 **** 0.0
14876 C 60.19 94.892 29.326 C 0.0 **** 0.0
14877 H 59.6 95.351 28.533 H 0.0 **** 0.0
14878 H 59.523 94.484 30.086 H 0.0 **** 0.0
14879 H 60.839 95.643 29.777 H 0.0 **** 0.0
14880 H 60.799 94.09 28.908 H 0.0 **** 0.0
14881 C 14.687 97.246 39.06 C 0.0 **** 0.0
14882 H 15.615 97.72 39.378 H 0.0 **** 0.0
14883 H 14.73 97.046 37.989 H 0.0 **** 0.0
14884 H 13.849 97.91 39.273 H 0.0 **** 0.0
14885 H 14.554 96.308 39.6 H 0.0 **** 0.0
14886 C 30.518 7.554 88.502 C 0.0 **** 0.0
14887 H 30.069 8.48 88.861 H 0.0 **** 0.0
14888 H 30.007 6.704 88.954 H 0.0 **** 0.0
14889 H 31.573 7.532 88.775 H 0.0 **** 0.0
14890 H 30.422 7.501 87.417 H 0.0 **** 0.0
14891 C 31.832 17.843 88.512 C 0.0 **** 0.0
14892 H 31.316 18.066 89.446 H 0.0 **** 0.0
14893 H 32.07 18.774 87.998 H 0.0 **** 0.0
14894 H 31.19 17.231 87.879 H 0.0 **** 0.0
14895 H 32.753 17.301 88.727 H 0.0 **** 0.0
14896 C 79.417 50.031 84.364 C 0.0 **** 0.0
14897 H 79.576 50.405 83.353 H 0.0 **** 0.0
14898 H 78.403 50.272 84.685 H 0.0 **** 0.0
14899 H 80.133 50.498 85.04 H 0.0 **** 0.0
14900 H 79.556 48.95 84.378 H 0.0 **** 0.0
14901 C 86.53 77.99 4.206 C 0.0 **** 0.0
14902 H 86.329 78.584 3.314 H 0.0 **** 0.0
14903 H 85.802 77.182 4.276 H 0.0 **** 0.0
14904 H 86.456 78.624 5.089 H 0.0 **** 0.0
14905 H 87.534 77.57 4.143 H 0.0 **** 0.0
14906 C 88.967 48.502 92.477 C 0.0 **** 0.0
14907 H 88.837 48.59 93.556 H 0.0 **** 0.0
14908 H 90.0 48.734 92.217 H 0.0 **** 0.0
14909 H 88.299 49.2 91.973 H 0.0 **** 0.0
14910 H 88.733 47.484 92.165 H 0.0 **** 0.0
14911 C 62.633 58.019 66.809 C 0.0 **** 0.0
14912 H 62.603 58.235 65.741 H 0.0 **** 0.0
14913 H 62.645 56.939 66.961 H 0.0 **** 0.0
14914 H 61.752 58.444 67.29 H 0.0 **** 0.0
14915 H 63.532 58.457 67.243 H 0.0 **** 0.0
14916 C 39.809 33.399 62.423 C 0.0 **** 0.0
14917 H 39.715 33.324 61.339 H 0.0 **** 0.0
14918 H 40.166 34.394 62.688 H 0.0 **** 0.0
14919 H 40.518 32.651 62.778 H 0.0 **** 0.0
14920 H 38.836 33.227 62.884 H 0.0 **** 0.0
14921 C 27.134 52.79 38.174 C 0.0 **** 0.0
14922 H 26.064 52.719 38.369 H 0.0 **** 0.0
14923 H 27.453 51.933 37.582 H 0.0 **** 0.0
14924 H 27.675 52.801 39.12 H 0.0 **** 0.0
14925 H 27.342 53.709 37.626 H 0.0 **** 0.0
14926 C 97.74 83.049 51.599 C 0.0 **** 0.0
14927 H 98.131 83.518 50.697 H 0.0 **** 0.0
14928 H 98.47 82.337 51.984 H 0.0 **** 0.0
14929 H 96.812 82.528 51.364 H 0.0 **** 0.0
14930 H 97.546 83.814 52.351 H 0.0 **** 0.0
14931 C 4.149 84.047 81.788 C 0.0 **** 0.0
14932 H 4.717 84.157 80.864 H 0.0 **** 0.0
14933 H 3.108 83.826 81.55 H 0.0 **** 0.0
14934 H 4.203 84.973 82.36 H 0.0 **** 0.0
14935 H 4.568 83.231 82.377 H 0.0 **** 0.0
14936 C 68.912 26.607 46.854 C 0.0 **** 0.0
14937 H 69.681 27.379 46.845 H 0.0 **** 0.0
14938 H 69.304 25.709 47.332 H 0.0 **** 0.0
14939 H 68.619 26.375 45.829 H 0.0 **** 0.0
14940 H 68.044 26.964 47.407 H 0.0 **** 0.0
14941 C 5.717 69.151 36.996 C 0.0 **** 0.0
14942 H 4.78 68.733 37.365 H 0.0 **** 0.0
14943 H 6.462 69.13 37.791 H 0.0 **** 0.0
14944 H 5.555 70.18 36.676 H 0.0 **** 0.0
14945 H 6.07 68.559 36.151 H 0.0 **** 0.0
14946 C 32.536 97.176 60.225 C 0.0 **** 0.0
14947 H 32.434 97.011 61.298 H 0.0 **** 0.0
14948 H 33.156 98.056 60.05 H 0.0 **** 0.0
14949 H 31.55 97.333 59.787 H 0.0 **** 0.0
14950 H 33.003 96.305 59.766 H 0.0 **** 0.0
14951 C 53.841 84.449 57.396 C 0.0 **** 0.0
14952 H 53.624 83.627 56.714 H 0.0 **** 0.0
14953 H 52.908 84.838 57.804 H 0.0 **** 0.0
14954 H 54.361 85.241 56.857 H 0.0 **** 0.0
14955 H 54.472 84.089 58.209 H 0.0 **** 0.0
14956 C 17.16 35.982 65.191 C 0.0 **** 0.0
14957 H 17.454 35.895 64.145 H 0.0 **** 0.0
14958 H 16.201 36.498 65.256 H 0.0 **** 0.0
14959 H 17.916 36.549 65.734 H 0.0 **** 0.0
14960 H 17.068 34.988 65.627 H 0.0 **** 0.0
14961 C 81.982 94.648 30.319 C 0.0 **** 0.0
14962 H 82.665 95.407 30.699 H 0.0 **** 0.0
14963 H 82.376 93.658 30.546 H 0.0 **** 0.0
14964 H 81.88 94.76 29.239 H 0.0 **** 0.0
14965 H 81.006 94.769 30.79 H 0.0 **** 0.0
14966 C 9.064 65.321 91.573 C 0.0 **** 0.0
14967 H 9.549 66.209 91.168 H 0.0 **** 0.0
14968 H 8.147 65.61 92.087 H 0.0 **** 0.0
14969 H 9.736 64.829 92.276 H 0.0 **** 0.0
14970 H 8.825 64.636 90.76 H 0.0 **** 0.0
14971 C 65.211 91.731 65.868 C 0.0 **** 0.0
14972 H 64.408 91.447 65.188 H 0.0 **** 0.0
14973 H 65.727 90.836 66.216 H 0.0 **** 0.0
14974 H 64.793 92.265 66.721 H 0.0 **** 0.0
14975 H 65.917 92.377 65.345 H 0.0 **** 0.0
14976 C 74.36 22.64 10.347 C 0.0 **** 0.0
14977 H 73.459 22.027 10.376 H 0.0 **** 0.0
14978 H 74.132 23.639 10.719 H 0.0 **** 0.0
14979 H 74.72 22.708 9.32 H 0.0 **** 0.0
14980 H 75.129 22.186 10.972 H 0.0 **** 0.0
14981 C 63.448 34.68 57.896 C 0.0 **** 0.0
14982 H 63.451 34.651 58.986 H 0.0 **** 0.0
14983 H 62.973 35.602 57.559 H 0.0 **** 0.0
14984 H 62.895 33.824 57.511 H 0.0 **** 0.0
14985 H 64.474 34.645 57.529 H 0.0 **** 0.0
14986 C 63.467 90.053 15.261 C 0.0 **** 0.0
14987 H 63.747 90.892 15.899 H 0.0 **** 0.0
14988 H 64.312 89.372 15.166 H 0.0 **** 0.0
14989 H 63.187 90.425 14.275 H 0.0 **** 0.0
14990 H 62.622 89.526 15.705 H 0.0 **** 0.0
14991 C 77.488 71.252 42.743 C 0.0 **** 0.0
14992 H 77.472 71.16 41.657 H 0.0 **** 0.0
14993 H 77.067 72.215 43.032 H 0.0 **** 0.0
14994 H 78.516 71.183 43.098 H 0.0 **** 0.0
14995 H 76.896 70.449 43.184 H 0.0 **** 0.0
14996 C 90.021 72.622 82.242 C 0.0 **** 0.0
14997 H 90.042 72.642 83.331 H 0.0 **** 0.0
14998 H 89.525 71.711 81.905 H 0.0 **** 0.0
14999 H 91.041 72.644 81.858 H 0.0 **** 0.0
15000 H 89.476 73.491 81.873 H 0.0 **** 0.0
15001 C 9.216 93.8 0.764 C 0.0 **** 0.0
15002 H 9.906 94.505 0.299 H 0.0 **** 0.0
15003 H 8.795 93.147 0.0 H 0.0 **** 0.0
15004 H 8.413 94.35 1.256 H 0.0 **** 0.0
15005 H 9.75 93.201 1.501 H 0.0 **** 0.0
15006 C 32.453 91.582 81.003 C 0.0 **** 0.0
15007 H 31.553 91.539 80.39 H 0.0 **** 0.0
15008 H 32.2 91.962 81.994 H 0.0 **** 0.0
15009 H 33.18 92.246 80.535 H 0.0 **** 0.0
15010 H 32.879 90.583 81.095 H 0.0 **** 0.0
15011 C 84.006 71.916 53.354 C 0.0 **** 0.0
15012 H 84.06 71.227 52.511 H 0.0 **** 0.0
15013 H 84.995 72.331 53.547 H 0.0 **** 0.0
15014 H 83.657 71.382 54.237 H 0.0 **** 0.0
15015 H 83.312 72.723 53.119 H 0.0 **** 0.0
15016 C 59.322 52.396 22.632 C 0.0 **** 0.0
15017 H 59.325 53.244 23.316 H 0.0 **** 0.0
15018 H 59.244 52.757 21.606 H 0.0 **** 0.0
15019 H 58.472 51.751 22.856 H 0.0 **** 0.0
15020 H 60.247 51.831 22.749 H 0.0 **** 0.0
15021 C 12.157 91.524 5.341 C 0.0 **** 0.0
15022 H 11.993 90.95 6.253 H 0.0 **** 0.0
15023 H 11.623 91.054 4.515 H 0.0 **** 0.0
15024 H 13.223 91.55 5.116 H 0.0 **** 0.0
15025 H 11.79 92.54 5.481 H 0.0 **** 0.0
15026 C 8.198 26.373 60.829 C 0.0 **** 0.0
15027 H 7.867 25.958 61.781 H 0.0 **** 0.0
15028 H 7.83 27.395 60.731 H 0.0 **** 0.0
15029 H 7.807 25.766 60.013 H 0.0 **** 0.0
15030 H 9.287 26.374 60.793 H 0.0 **** 0.0
15031 C 39.211 34.22 97.633 C 0.0 **** 0.0
15032 H 39.384 33.36 96.987 H 0.0 **** 0.0
15033 H 38.154 34.488 97.605 H 0.0 **** 0.0
15034 H 39.809 35.062 97.285 H 0.0 **** 0.0
15035 H 39.495 33.969 98.655 H 0.0 **** 0.0
15036 C 82.127 40.93 81.046 C 0.0 **** 0.0
15037 H 81.588 41.871 81.149 H 0.0 **** 0.0
15038 H 81.579 40.14 81.561 H 0.0 **** 0.0
15039 H 83.12 41.029 81.484 H 0.0 **** 0.0
15040 H 82.219 40.679 79.989 H 0.0 **** 0.0
15041 C 59.22 57.918 38.787 C 0.0 **** 0.0
15042 H 58.984 58.803 39.378 H 0.0 **** 0.0
15043 H 59.119 57.029 39.409 H 0.0 **** 0.0
15044 H 60.244 57.99 38.419 H 0.0 **** 0.0
15045 H 58.534 57.852 37.942 H 0.0 **** 0.0
15046 C 26.566 95.044 52.024 C 0.0 **** 0.0
15047 H 27.543 95.327 51.632 H 0.0 **** 0.0
15048 H 25.787 95.571 51.472 H 0.0 **** 0.0
15049 H 26.506 95.31 53.079 H 0.0 **** 0.0
15050 H 26.427 93.969 51.912 H 0.0 **** 0.0
15051 C 18.555 40.151 13.087 C 0.0 **** 0.0
15052 H 19.478 40.672 12.832 H 0.0 **** 0.0
15053 H 18.093 39.765 12.178 H 0.0 **** 0.0
15054 H 17.87 40.844 13.576 H 0.0 **** 0.0
15055 H 18.779 39.324 13.761 H 0.0 **** 0.0
15056 C 86.343 71.04 76.969 C 0.0 **** 0.0
15057 H 86.572 71.144 78.03 H 0.0 **** 0.0
15058 H 86.172 72.026 76.536 H 0.0 **** 0.0
15059 H 85.448 70.429 76.849 H 0.0 **** 0.0
15060 H 87.181 70.561 76.462 H 0.0 **** 0.0
15061 C 48.569 59.384 82.305 C 0.0 **** 0.0
15062 H 49.509 59.755 81.897 H 0.0 **** 0.0
15063 H 47.745 59.7 81.665 H 0.0 **** 0.0
15064 H 48.425 59.785 83.308 H 0.0 **** 0.0
15065 H 48.597 58.295 82.35 H 0.0 **** 0.0
15066 C 47.904 64.794 33.384 C 0.0 **** 0.0
15067 H 47.544 65.028 34.386 H 0.0 **** 0.0
15068 H 47.484 65.505 32.673 H 0.0 **** 0.0
15069 H 47.594 63.784 33.114 H 0.0 **** 0.0
15070 H 48.992 64.858 33.365 H 0.0 **** 0.0
15071 C 36.759 36.334 65.239 C 0.0 **** 0.0
15072 H 37.504 35.862 64.599 H 0.0 **** 0.0
15073 H 36.739 35.831 66.206 H 0.0 **** 0.0
15074 H 35.777 36.259 64.77 H 0.0 **** 0.0
15075 H 37.014 37.385 65.38 H 0.0 **** 0.0
15076 C 10.029 78.852 53.453 C 0.0 **** 0.0
15077 H 10.251 79.866 53.787 H 0.0 **** 0.0
15078 H 10.713 78.576 52.651 H 0.0 **** 0.0
15079 H 9.003 78.807 53.088 H 0.0 **** 0.0
15080 H 10.148 78.161 54.288 H 0.0 **** 0.0
15081 C 27.447 16.362 42.672 C 0.0 **** 0.0
15082 H 27.502 15.789 43.598 H 0.0 **** 0.0
15083 H 26.476 16.853 42.607 H 0.0 **** 0.0
15084 H 27.573 15.692 41.822 H 0.0 **** 0.0
15085 H 28.236 17.113 42.663 H 0.0 **** 0.0
15086 C 28.103 85.485 67.697 C 0.0 **** 0.0
15087 H 28.049 84.402 67.806 H 0.0 **** 0.0
15088 H 27.125 85.87 67.405 H 0.0 **** 0.0
15089 H 28.837 85.737 66.932 H 0.0 **** 0.0
15090 H 28.4 85.931 68.646 H 0.0 **** 0.0
15091 C 78.313 6.587 64.819 C 0.0 **** 0.0
15092 H 78.538 6.985 65.809 H 0.0 **** 0.0
15093 H 78.663 5.557 64.754 H 0.0 **** 0.0
15094 H 78.816 7.191 64.063 H 0.0 **** 0.0
15095 H 77.237 6.617 64.651 H 0.0 **** 0.0
15096 C 2.6 2.242 71.38 C 0.0 **** 0.0
15097 H 1.574 2.212 71.014 H 0.0 **** 0.0
15098 H 2.877 1.26 71.764 H 0.0 **** 0.0
15099 H 2.68 2.98 72.178 H 0.0 **** 0.0
15100 H 3.269 2.515 70.564 H 0.0 **** 0.0
15101 C 93.879 67.858 30.179 C 0.0 **** 0.0
15102 H 93.588 67.877 29.129 H 0.0 **** 0.0
15103 H 93.268 68.567 30.738 H 0.0 **** 0.0
15104 H 94.93 68.131 30.271 H 0.0 **** 0.0
15105 H 93.728 66.855 30.579 H 0.0 **** 0.0
15106 C 36.84 91.347 1.159 C 0.0 **** 0.0
15107 H 36.902 90.271 1.319 H 0.0 **** 0.0
15108 H 37.01 91.567 0.104 H 0.0 **** 0.0
15109 H 37.597 91.848 1.762 H 0.0 **** 0.0
15110 H 35.851 91.701 1.449 H 0.0 **** 0.0
15111 C 54.855 90.277 92.339 C 0.0 **** 0.0
15112 H 54.887 89.826 91.347 H 0.0 **** 0.0
15113 H 55.627 91.042 92.415 H 0.0 **** 0.0
15114 H 55.028 89.509 93.093 H 0.0 **** 0.0
15115 H 53.876 90.73 92.5 H 0.0 **** 0.0
15116 C 67.108 0.614 14.856 C 0.0 **** 0.0
15117 H 66.7 0.672 15.865 H 0.0 **** 0.0
15118 H 67.353 1.616 14.505 H 0.0 **** 0.0
15119 H 66.369 0.166 14.191 H 0.0 **** 0.0
15120 H 68.009 0.0 14.863 H 0.0 **** 0.0
15121 C 44.863 29.889 37.579 C 0.0 **** 0.0
15122 H 45.327 29.625 36.629 H 0.0 **** 0.0
15123 H 45.295 30.819 37.949 H 0.0 **** 0.0
15124 H 45.04 29.093 38.303 H 0.0 **** 0.0
15125 H 43.79 30.017 37.436 H 0.0 **** 0.0
15126 C 37.279 53.21 22.575 C 0.0 **** 0.0
15127 H 38.183 53.43 22.008 H 0.0 **** 0.0
15128 H 36.971 54.1 23.126 H 0.0 **** 0.0
15129 H 37.478 52.4 23.276 H 0.0 **** 0.0
15130 H 36.484 52.913 21.891 H 0.0 **** 0.0
15131 C 84.36 38.234 85.085 C 0.0 **** 0.0
15132 H 83.579 38.031 85.818 H 0.0 **** 0.0
15133 H 83.934 38.784 84.245 H 0.0 **** 0.0
15134 H 84.777 37.292 84.728 H 0.0 **** 0.0
15135 H 85.147 38.829 85.548 H 0.0 **** 0.0
15136 C 28.479 2.047 35.557 C 0.0 **** 0.0
15137 H 28.475 1.998 34.468 H 0.0 **** 0.0
15138 H 28.568 3.087 35.873 H 0.0 **** 0.0
15139 H 29.324 1.476 35.943 H 0.0 **** 0.0
15140 H 27.55 1.628 35.943 H 0.0 **** 0.0
15141 C 92.7 9.238 41.896 C 0.0 **** 0.0
15142 H 91.991 9.415 41.087 H 0.0 **** 0.0
15143 H 92.199 8.71 42.708 H 0.0 **** 0.0
15144 H 93.079 10.192 42.262 H 0.0 **** 0.0
15145 H 93.529 8.635 41.527 H 0.0 **** 0.0
15146 C 31.542 83.489 50.916 C 0.0 **** 0.0
15147 H 30.484 83.308 50.723 H 0.0 **** 0.0
15148 H 32.06 82.535 51.019 H 0.0 **** 0.0
15149 H 31.65 84.063 51.836 H 0.0 **** 0.0
15150 H 31.971 84.049 50.086 H 0.0 **** 0.0
15151 C 9.494 79.939 39.271 C 0.0 **** 0.0
15152 H 9.567 80.118 38.199 H 0.0 **** 0.0
15153 H 8.483 80.169 39.609 H 0.0 **** 0.0
15154 H 10.207 80.576 39.795 H 0.0 **** 0.0
15155 H 9.719 78.893 39.481 H 0.0 **** 0.0
15156 C 62.432 4.406 11.292 C 0.0 **** 0.0
15157 H 62.102 5.189 11.974 H 0.0 **** 0.0
15158 H 62.66 4.843 10.319 H 0.0 **** 0.0
15159 H 61.642 3.664 11.181 H 0.0 **** 0.0
15160 H 63.326 3.928 11.694 H 0.0 **** 0.0
15161 C 38.388 11.234 15.52 C 0.0 **** 0.0
15162 H 39.121 11.9 15.974 H 0.0 **** 0.0
15163 H 38.536 11.214 14.44 H 0.0 **** 0.0
15164 H 37.383 11.593 15.743 H 0.0 **** 0.0
15165 H 38.512 10.228 15.923 H 0.0 **** 0.0
15166 C 15.473 82.445 18.14 C 0.0 **** 0.0
15167 H 15.23 81.8 17.296 H 0.0 **** 0.0
15168 H 15.556 83.476 17.797 H 0.0 **** 0.0
15169 H 16.42 82.13 18.577 H 0.0 **** 0.0
15170 H 14.685 82.373 18.89 H 0.0 **** 0.0
15171 C 67.381 73.639 42.882 C 0.0 **** 0.0
15172 H 67.417 73.701 41.794 H 0.0 **** 0.0
15173 H 67.755 72.666 43.202 H 0.0 **** 0.0
15174 H 66.352 73.763 43.219 H 0.0 **** 0.0
15175 H 68.001 74.426 43.311 H 0.0 **** 0.0
15176 C 12.066 55.158 13.116 C 0.0 **** 0.0
15177 H 11.728 55.448 14.111 H 0.0 **** 0.0
15178 H 11.279 55.366 12.391 H 0.0 **** 0.0
15179 H 12.296 54.093 13.107 H 0.0 **** 0.0
15180 H 12.96 55.725 12.857 H 0.0 **** 0.0
15181 C 69.038 47.549 47.937 C 0.0 **** 0.0
15182 H 68.209 47.59 48.644 H 0.0 **** 0.0
15183 H 69.301 48.56 47.628 H 0.0 **** 0.0
15184 H 68.742 46.967 47.065 H 0.0 **** 0.0
15185 H 69.898 47.078 48.413 H 0.0 **** 0.0
15186 C 44.533 44.869 29.177 C 0.0 **** 0.0
15187 H 45.078 45.484 29.893 H 0.0 **** 0.0
15188 H 44.738 45.22 28.166 H 0.0 **** 0.0
15189 H 43.464 44.94 29.377 H 0.0 **** 0.0
15190 H 44.852 43.831 29.273 H 0.0 **** 0.0
15191 C 50.439 85.699 51.94 C 0.0 **** 0.0
15192 H 50.989 85.212 52.745 H 0.0 **** 0.0
15193 H 51.013 86.549 51.57 H 0.0 **** 0.0
15194 H 49.476 86.046 52.316 H 0.0 **** 0.0
15195 H 50.277 84.989 51.129 H 0.0 **** 0.0
15196 C 68.523 14.048 33.055 C 0.0 **** 0.0
15197 H 67.608 13.456 33.031 H 0.0 **** 0.0
15198 H 68.716 14.378 34.076 H 0.0 **** 0.0
15199 H 68.408 14.918 32.407 H 0.0 **** 0.0
15200 H 69.358 13.442 32.704 H 0.0 **** 0.0
15201 C 30.567 83.687 26.496 C 0.0 **** 0.0
15202 H 31.52 83.491 26.988 H 0.0 **** 0.0
15203 H 30.731 84.329 25.631 H 0.0 **** 0.0
15204 H 29.894 84.183 27.195 H 0.0 **** 0.0
15205 H 30.125 82.745 26.172 H 0.0 **** 0.0
15206 C 38.881 26.575 98.299 C 0.0 **** 0.0
15207 H 39.621 27.299 97.955 H 0.0 **** 0.0
15208 H 38.318 26.199 97.444 H 0.0 **** 0.0
15209 H 38.2 27.058 99.0 H 0.0 **** 0.0
15210 H 39.387 25.747 98.795 H 0.0 **** 0.0
15211 C 95.469 83.655 45.216 C 0.0 **** 0.0
15212 H 94.452 83.839 45.563 H 0.0 **** 0.0
15213 H 95.961 82.952 45.889 H 0.0 **** 0.0
15214 H 96.023 84.593 45.202 H 0.0 **** 0.0
15215 H 95.439 83.235 44.211 H 0.0 **** 0.0
15216 C 27.187 33.406 78.522 C 0.0 **** 0.0
15217 H 27.352 33.698 79.559 H 0.0 **** 0.0
15218 H 28.149 33.291 78.02 H 0.0 **** 0.0
15219 H 26.604 34.176 78.016 H 0.0 **** 0.0
15220 H 26.646 32.461 78.492 H 0.0 **** 0.0
15221 C 34.868 58.519 45.571 C 0.0 **** 0.0
15222 H 34.262 57.625 45.718 H 0.0 **** 0.0
15223 H 35.735 58.274 44.958 H 0.0 **** 0.0
15224 H 35.2 58.896 46.538 H 0.0 **** 0.0
15225 H 34.272 59.282 45.069 H 0.0 **** 0.0
15226 C 55.398 41.347 61.459 C 0.0 **** 0.0
15227 H 55.67 41.546 60.422 H 0.0 **** 0.0
15228 H 55.08 42.274 61.936 H 0.0 **** 0.0
15229 H 56.261 40.942 61.989 H 0.0 **** 0.0
15230 H 54.583 40.624 61.487 H 0.0 **** 0.0
15231 C 39.461 61.694 56.421 C 0.0 **** 0.0
15232 H 39.434 61.683 55.331 H 0.0 **** 0.0
15233 H 39.125 62.667 56.782 H 0.0 **** 0.0
15234 H 40.48 61.512 56.761 H 0.0 **** 0.0
15235 H 38.803 60.916 56.808 H 0.0 **** 0.0
15236 C 50.518 86.504 33.335 C 0.0 **** 0.0
15237 H 49.895 85.725 32.896 H 0.0 **** 0.0
15238 H 49.889 87.211 33.876 H 0.0 **** 0.0
15239 H 51.057 87.026 32.544 H 0.0 **** 0.0
15240 H 51.233 86.051 34.023 H 0.0 **** 0.0
15241 C 49.751 35.074 0.751 C 0.0 **** 0.0
15242 H 49.034 35.891 0.669 H 0.0 **** 0.0
15243 H 50.758 35.457 0.59 H 0.0 **** 0.0
15244 H 49.526 34.317 0.0 H 0.0 **** 0.0
15245 H 49.684 34.631 1.745 H 0.0 **** 0.0
15246 C 46.575 35.994 67.364 C 0.0 **** 0.0
15247 H 46.509 36.244 68.423 H 0.0 **** 0.0
15248 H 46.576 34.91 67.246 H 0.0 **** 0.0
15249 H 47.496 36.405 66.95 H 0.0 **** 0.0
15250 H 45.719 36.416 66.837 H 0.0 **** 0.0
15251 C 46.751 47.56 82.833 C 0.0 **** 0.0
15252 H 45.944 48.155 82.405 H 0.0 **** 0.0
15253 H 47.409 48.206 83.414 H 0.0 **** 0.0
15254 H 47.319 47.089 82.031 H 0.0 **** 0.0
15255 H 46.33 46.791 83.481 H 0.0 **** 0.0
15256 C 82.815 63.724 78.746 C 0.0 **** 0.0
15257 H 82.631 63.951 77.696 H 0.0 **** 0.0
15258 H 81.948 63.211 79.164 H 0.0 **** 0.0
15259 H 82.988 64.651 79.293 H 0.0 **** 0.0
15260 H 83.692 63.083 78.831 H 0.0 **** 0.0
15261 C 89.627 28.642 47.112 C 0.0 **** 0.0
15262 H 90.571 29.105 47.4 H 0.0 **** 0.0
15263 H 89.516 28.689 46.028 H 0.0 **** 0.0
15264 H 88.802 29.175 47.586 H 0.0 **** 0.0
15265 H 89.62 27.601 47.434 H 0.0 **** 0.0
15266 C 77.89 6.888 60.26 C 0.0 **** 0.0
15267 H 78.084 7.118 59.213 H 0.0 **** 0.0
15268 H 78.803 6.513 60.724 H 0.0 **** 0.0
15269 H 77.11 6.13 60.327 H 0.0 **** 0.0
15270 H 77.565 7.791 60.776 H 0.0 **** 0.0
15271 C 76.544 14.661 42.19 C 0.0 **** 0.0
15272 H 77.03 13.685 42.196 H 0.0 **** 0.0
15273 H 75.682 14.641 42.858 H 0.0 **** 0.0
15274 H 76.214 14.896 41.178 H 0.0 **** 0.0
15275 H 77.249 15.42 42.529 H 0.0 **** 0.0
15276 C 58.454 20.215 34.805 C 0.0 **** 0.0
15277 H 58.812 19.476 34.088 H 0.0 **** 0.0
15278 H 59.034 20.137 35.726 H 0.0 **** 0.0
15279 H 57.402 20.032 35.021 H 0.0 **** 0.0
15280 H 58.57 21.214 34.386 H 0.0 **** 0.0
15281 C 74.316 25.044 75.294 C 0.0 **** 0.0
15282 H 74.034 25.946 74.752 H 0.0 **** 0.0
15283 H 73.722 24.966 76.205 H 0.0 **** 0.0
15284 H 75.374 25.091 75.552 H 0.0 **** 0.0
15285 H 74.134 24.172 74.665 H 0.0 **** 0.0
15286 C 22.298 90.534 69.543 C 0.0 **** 0.0
15287 H 22.255 90.437 70.628 H 0.0 **** 0.0
15288 H 23.269 90.934 69.252 H 0.0 **** 0.0
15289 H 21.51 91.209 69.207 H 0.0 **** 0.0
15290 H 22.156 89.554 69.085 H 0.0 **** 0.0
15291 C 52.649 21.784 68.926 C 0.0 **** 0.0
15292 H 52.577 21.807 67.839 H 0.0 **** 0.0
15293 H 53.549 22.312 69.242 H 0.0 **** 0.0
15294 H 52.696 20.749 69.265 H 0.0 **** 0.0
15295 H 51.772 22.268 69.358 H 0.0 **** 0.0
15296 C 40.178 6.507 47.234 C 0.0 **** 0.0
15297 H 40.364 7.558 47.456 H 0.0 **** 0.0
15298 H 40.153 5.939 48.164 H 0.0 **** 0.0
15299 H 40.974 6.125 46.595 H 0.0 **** 0.0
15300 H 39.222 6.409 46.721 H 0.0 **** 0.0
15301 C 64.127 23.899 50.84 C 0.0 **** 0.0
15302 H 64.076 24.498 49.931 H 0.0 **** 0.0
15303 H 64.271 24.556 51.699 H 0.0 **** 0.0
15304 H 64.962 23.203 50.77 H 0.0 **** 0.0
15305 H 63.198 23.342 50.961 H 0.0 **** 0.0
15306 C 63.132 31.077 24.116 C 0.0 **** 0.0
15307 H 63.456 32.109 23.981 H 0.0 **** 0.0
15308 H 62.483 30.789 23.289 H 0.0 **** 0.0
15309 H 62.587 30.987 25.055 H 0.0 **** 0.0
15310 H 64.004 30.423 24.138 H 0.0 **** 0.0
15311 C 47.256 5.048 22.775 C 0.0 **** 0.0
15312 H 48.239 5.249 23.201 H 0.0 **** 0.0
15313 H 46.505 5.077 23.565 H 0.0 **** 0.0
15314 H 47.256 4.063 22.309 H 0.0 **** 0.0
15315 H 47.024 5.804 22.025 H 0.0 **** 0.0
15316 C 51.769 42.685 60.262 C 0.0 **** 0.0
15317 H 52.794 43.024 60.11 H 0.0 **** 0.0
15318 H 51.694 41.628 60.005 H 0.0 **** 0.0
15319 H 51.098 43.263 59.626 H 0.0 **** 0.0
15320 H 51.49 42.826 61.306 H 0.0 **** 0.0
15321 C 36.309 65.97 27.315 C 0.0 **** 0.0
15322 H 36.98 66.412 26.578 H 0.0 **** 0.0
15323 H 36.338 64.884 27.227 H 0.0 **** 0.0
15324 H 35.293 66.322 27.137 H 0.0 **** 0.0
15325 H 36.625 66.263 28.316 H 0.0 **** 0.0
15326 C 12.072 34.468 29.518 C 0.0 **** 0.0
15327 H 11.438 35.004 30.224 H 0.0 **** 0.0
15328 H 12.332 33.493 29.931 H 0.0 **** 0.0
15329 H 12.982 35.042 29.34 H 0.0 **** 0.0
15330 H 11.537 34.335 28.578 H 0.0 **** 0.0
15331 C 85.507 63.798 50.278 C 0.0 **** 0.0
15332 H 85.097 64.498 49.55 H 0.0 **** 0.0
15333 H 86.077 63.027 49.76 H 0.0 **** 0.0
15334 H 84.692 63.336 50.835 H 0.0 **** 0.0
15335 H 86.161 64.332 50.968 H 0.0 **** 0.0
15336 C 89.777 0.633 67.049 C 0.0 **** 0.0
15337 H 90.289 1.199 67.827 H 0.0 **** 0.0
15338 H 89.299 1.323 66.353 H 0.0 **** 0.0
15339 H 89.021 -0.007 67.504 H 0.0 **** 0.0
15340 H 90.499 0.017 66.512 H 0.0 **** 0.0
15341 C 96.867 86.668 29.954 C 0.0 **** 0.0
15342 H 97.159 87.473 29.279 H 0.0 **** 0.0
15343 H 97.29 85.727 29.602 H 0.0 **** 0.0
15344 H 95.78 86.591 29.979 H 0.0 **** 0.0
15345 H 97.24 86.881 30.956 H 0.0 **** 0.0
15346 C 1.026 78.591 19.945 C 0.0 **** 0.0
15347 H 0.003 78.967 19.942 H 0.0 **** 0.0
15348 H 1.316 78.335 20.964 H 0.0 **** 0.0
15349 H 1.696 79.359 19.558 H 0.0 **** 0.0
15350 H 1.089 77.704 19.314 H 0.0 **** 0.0
15351 C 31.61 85.283 12.465 C 0.0 **** 0.0
15352 H 30.577 85.549 12.241 H 0.0 **** 0.0
15353 H 31.757 84.217 12.288 H 0.0 **** 0.0
15354 H 31.826 85.512 13.508 H 0.0 **** 0.0
15355 H 32.279 85.854 11.821 H 0.0 **** 0.0
15356 C 25.039 17.552 28.381 C 0.0 **** 0.0
15357 H 25.019 17.481 27.293 H 0.0 **** 0.0
15358 H 25.01 18.601 28.676 H 0.0 **** 0.0
15359 H 25.953 17.093 28.758 H 0.0 **** 0.0
15360 H 24.174 17.034 28.794 H 0.0 **** 0.0
15361 C 28.637 86.015 77.414 C 0.0 **** 0.0
15362 H 29.67 86.353 77.501 H 0.0 **** 0.0
15363 H 27.974 86.758 77.859 H 0.0 **** 0.0
15364 H 28.521 85.065 77.936 H 0.0 **** 0.0
15365 H 28.385 85.885 76.362 H 0.0 **** 0.0
15366 C 26.459 54.424 32.52 C 0.0 **** 0.0
15367 H 26.512 55.493 32.725 H 0.0 **** 0.0
15368 H 25.636 53.986 33.086 H 0.0 **** 0.0
15369 H 27.396 53.951 32.814 H 0.0 **** 0.0
15370 H 26.292 54.267 31.454 H 0.0 **** 0.0
15371 C 36.552 95.876 93.032 C 0.0 **** 0.0
15372 H 36.562 95.777 91.947 H 0.0 **** 0.0
15373 H 37.556 96.11 93.385 H 0.0 **** 0.0
15374 H 36.218 94.939 93.479 H 0.0 **** 0.0
15375 H 35.87 96.677 93.317 H 0.0 **** 0.0
15376 C 85.273 55.271 23.986 C 0.0 **** 0.0
15377 H 84.961 54.819 23.044 H 0.0 **** 0.0
15378 H 86.041 54.651 24.45 H 0.0 **** 0.0
15379 H 84.415 55.347 24.653 H 0.0 **** 0.0
15380 H 85.676 56.266 23.795 H 0.0 **** 0.0
15381 C 30.532 47.472 50.53 C 0.0 **** 0.0
15382 H 30.426 46.799 49.68 H 0.0 **** 0.0
15383 H 31.212 47.032 51.26 H 0.0 **** 0.0
15384 H 29.557 47.631 50.992 H 0.0 **** 0.0
15385 H 30.933 48.427 50.19 H 0.0 **** 0.0
15386 C 36.443 37.754 53.324 C 0.0 **** 0.0
15387 H 37.483 37.882 53.023 H 0.0 **** 0.0
15388 H 35.96 38.73 53.385 H 0.0 **** 0.0
15389 H 36.404 37.268 54.299 H 0.0 **** 0.0
15390 H 35.926 37.138 52.589 H 0.0 **** 0.0
15391 C 95.679 69.789 26.683 C 0.0 **** 0.0
15392 H 95.543 69.933 25.611 H 0.0 **** 0.0
15393 H 95.461 68.753 26.94 H 0.0 **** 0.0
15394 H 95.004 70.45 27.227 H 0.0 **** 0.0
15395 H 96.709 70.022 26.952 H 0.0 **** 0.0
15396 C 82.969 92.496 70.496 C 0.0 **** 0.0
15397 H 82.622 92.543 71.529 H 0.0 **** 0.0
15398 H 83.067 93.507 70.1 H 0.0 **** 0.0
15399 H 82.251 91.938 69.896 H 0.0 **** 0.0
15400 H 83.938 91.997 70.461 H 0.0 **** 0.0
15401 C 35.668 83.95 18.653 C 0.0 **** 0.0
15402 H 35.528 84.933 19.102 H 0.0 **** 0.0
15403 H 36.524 83.458 19.115 H 0.0 **** 0.0
15404 H 35.846 84.061 17.583 H 0.0 **** 0.0
15405 H 34.774 83.348 18.811 H 0.0 **** 0.0
15406 C 55.61 35.857 93.229 C 0.0 **** 0.0
15407 H 56.116 36.238 92.342 H 0.0 **** 0.0
15408 H 54.683 36.409 93.383 H 0.0 **** 0.0
15409 H 56.257 35.982 94.097 H 0.0 **** 0.0
15410 H 55.385 34.799 93.092 H 0.0 **** 0.0
15411 C 10.805 50.731 34.358 C 0.0 **** 0.0
15412 H 10.729 49.76 33.868 H 0.0 **** 0.0
15413 H 11.734 50.78 34.925 H 0.0 **** 0.0
15414 H 9.959 50.863 35.033 H 0.0 **** 0.0
15415 H 10.796 51.519 33.605 H 0.0 **** 0.0
15416 C 25.254 94.801 58.606 C 0.0 **** 0.0
15417 H 25.279 94.033 57.833 H 0.0 **** 0.0
15418 H 26.204 95.335 58.618 H 0.0 **** 0.0
15419 H 25.086 94.334 59.577 H 0.0 **** 0.0
15420 H 24.445 95.501 58.395 H 0.0 **** 0.0
15421 C 44.355 80.39 18.24 C 0.0 **** 0.0
15422 H 44.813 79.913 17.373 H 0.0 **** 0.0
15423 H 44.984 81.216 18.574 H 0.0 **** 0.0
15424 H 44.255 79.662 19.044 H 0.0 **** 0.0
15425 H 43.37 80.769 17.968 H 0.0 **** 0.0
15426 C 49.436 34.099 20.05 C 0.0 **** 0.0
15427 H 49.113 34.35 19.04 H 0.0 **** 0.0
15428 H 49.521 33.016 20.146 H 0.0 **** 0.0
15429 H 48.706 34.472 20.768 H 0.0 **** 0.0
15430 H 50.405 34.558 20.246 H 0.0 **** 0.0
15431 C 68.529 54.242 36.286 C 0.0 **** 0.0
15432 H 68.541 53.152 36.251 H 0.0 **** 0.0
15433 H 69.509 54.606 36.595 H 0.0 **** 0.0
15434 H 67.775 54.574 36.999 H 0.0 **** 0.0
15435 H 68.291 54.634 35.297 H 0.0 **** 0.0
15436 C 10.759 55.927 55.551 C 0.0 **** 0.0
15437 H 10.818 55.925 54.462 H 0.0 **** 0.0
15438 H 11.474 56.645 55.952 H 0.0 **** 0.0
15439 H 10.993 54.931 55.928 H 0.0 **** 0.0
15440 H 9.751 56.205 55.859 H 0.0 **** 0.0
15441 C 41.249 19.425 21.842 C 0.0 **** 0.0
15442 H 41.099 20.044 20.957 H 0.0 **** 0.0
15443 H 42.311 19.208 21.958 H 0.0 **** 0.0
15444 H 40.697 18.492 21.728 H 0.0 **** 0.0
15445 H 40.887 19.956 22.722 H 0.0 **** 0.0
15446 C 24.606 52.226 64.777 C 0.0 **** 0.0
15447 H 24.837 51.644 65.668 H 0.0 **** 0.0
15448 H 25.531 52.489 64.264 H 0.0 **** 0.0
15449 H 24.078 53.136 65.064 H 0.0 **** 0.0
15450 H 23.976 51.636 64.111 H 0.0 **** 0.0
15451 C 15.308 51.734 89.35 C 0.0 **** 0.0
15452 H 15.282 51.833 90.435 H 0.0 **** 0.0
15453 H 14.547 52.378 88.909 H 0.0 **** 0.0
15454 H 15.111 50.698 89.074 H 0.0 **** 0.0
15455 H 16.291 52.028 88.982 H 0.0 **** 0.0
15456 C 18.368 22.748 5.574 C 0.0 **** 0.0
15457 H 18.28 23.434 4.732 H 0.0 **** 0.0
15458 H 17.614 21.965 5.484 H 0.0 **** 0.0
15459 H 18.215 23.295 6.505 H 0.0 **** 0.0
15460 H 19.361 22.299 5.575 H 0.0 **** 0.0
15461 C 17.159 21.429 96.405 C 0.0 **** 0.0
15462 H 17.371 21.568 97.465 H 0.0 **** 0.0
15463 H 16.367 20.69 96.287 H 0.0 **** 0.0
15464 H 18.059 21.083 95.897 H 0.0 **** 0.0
15465 H 16.839 22.377 95.971 H 0.0 **** 0.0
15466 C 58.657 37.632 78.284 C 0.0 **** 0.0
15467 H 58.563 37.577 79.368 H 0.0 **** 0.0
15468 H 58.094 36.818 77.828 H 0.0 **** 0.0
15469 H 59.708 37.548 78.006 H 0.0 **** 0.0
15470 H 58.264 38.587 77.934 H 0.0 **** 0.0
15471 C 39.416 57.064 88.28 C 0.0 **** 0.0
15472 H 39.423 57.104 87.191 H 0.0 **** 0.0
15473 H 39.064 56.085 88.605 H 0.0 **** 0.0
15474 H 38.752 57.837 88.667 H 0.0 **** 0.0
15475 H 40.426 57.231 88.656 H 0.0 **** 0.0
15476 C 80.716 75.932 38.792 C 0.0 **** 0.0
15477 H 80.712 75.751 39.867 H 0.0 **** 0.0
15478 H 81.445 75.276 38.316 H 0.0 **** 0.0
15479 H 80.981 76.971 38.6 H 0.0 **** 0.0
15480 H 79.725 75.729 38.386 H 0.0 **** 0.0
15481 C 63.003 27.141 20.021 C 0.0 **** 0.0
15482 H 62.448 26.714 19.186 H 0.0 **** 0.0
15483 H 64.021 27.368 19.703 H 0.0 **** 0.0
15484 H 63.031 26.425 20.843 H 0.0 **** 0.0
15485 H 62.513 28.056 20.353 H 0.0 **** 0.0
15486 C 28.087 59.704 78.575 C 0.0 **** 0.0
15487 H 27.979 60.117 77.572 H 0.0 **** 0.0
15488 H 28.83 58.907 78.561 H 0.0 **** 0.0
15489 H 27.129 59.304 78.908 H 0.0 **** 0.0
15490 H 28.409 60.49 79.258 H 0.0 **** 0.0
15491 C 49.732 3.282 56.931 C 0.0 **** 0.0
15492 H 50.422 2.804 56.236 H 0.0 **** 0.0
15493 H 49.684 2.701 57.852 H 0.0 **** 0.0
15494 H 48.74 3.333 56.482 H 0.0 **** 0.0
15495 H 50.082 4.29 57.155 H 0.0 **** 0.0
15496 C 96.39 37.215 28.714 C 0.0 **** 0.0
15497 H 95.989 37.128 27.705 H 0.0 **** 0.0
15498 H 95.667 36.819 29.428 H 0.0 **** 0.0
15499 H 96.585 38.264 28.938 H 0.0 **** 0.0
15500 H 97.319 36.65 28.786 H 0.0 **** 0.0
15501 C 91.33 15.061 80.234 C 0.0 **** 0.0
15502 H 91.327 15.045 81.324 H 0.0 **** 0.0
15503 H 91.147 14.055 79.856 H 0.0 **** 0.0
15504 H 92.298 15.414 79.879 H 0.0 **** 0.0
15505 H 90.546 15.731 79.879 H 0.0 **** 0.0
15506 C 55.281 24.438 72.206 C 0.0 **** 0.0
15507 H 55.171 24.529 71.125 H 0.0 **** 0.0
15508 H 54.339 24.694 72.69 H 0.0 **** 0.0
15509 H 56.063 25.115 72.549 H 0.0 **** 0.0
15510 H 55.553 23.412 72.457 H 0.0 **** 0.0
15511 C 2.283 94.463 22.355 C 0.0 **** 0.0
15512 H 2.454 94.391 21.281 H 0.0 **** 0.0
15513 H 1.212 94.426 22.556 H 0.0 **** 0.0
15514 H 2.69 95.404 22.726 H 0.0 **** 0.0
15515 H 2.776 93.631 22.858 H 0.0 **** 0.0
15516 C 43.182 30.697 42.385 C 0.0 **** 0.0
15517 H 43.848 31.279 41.747 H 0.0 **** 0.0
15518 H 42.198 30.633 41.919 H 0.0 **** 0.0
15519 H 43.094 31.184 43.356 H 0.0 **** 0.0
15520 H 43.589 29.695 42.516 H 0.0 **** 0.0
15521 C 74.374 40.374 92.924 C 0.0 **** 0.0
15522 H 74.31 40.403 94.012 H 0.0 **** 0.0
15523 H 75.419 40.306 92.624 H 0.0 **** 0.0
15524 H 73.935 41.282 92.511 H 0.0 **** 0.0
15525 H 73.831 39.506 92.552 H 0.0 **** 0.0
15526 C 39.042 62.134 8.798 C 0.0 **** 0.0
15527 H 39.642 62.152 9.708 H 0.0 **** 0.0
15528 H 39.233 63.038 8.22 H 0.0 **** 0.0
15529 H 37.985 62.087 9.061 H 0.0 **** 0.0
15530 H 39.309 61.259 8.205 H 0.0 **** 0.0
15531 C 96.038 89.964 23.175 C 0.0 **** 0.0
15532 H 96.316 89.153 22.501 H 0.0 **** 0.0
15533 H 96.101 90.915 22.644 H 0.0 **** 0.0
15534 H 96.718 89.978 24.027 H 0.0 **** 0.0
15535 H 95.018 89.811 23.526 H 0.0 **** 0.0
15536 C 5.83 38.776 69.54 C 0.0 **** 0.0
15537 H 5.46 38.994 70.542 H 0.0 **** 0.0
15538 H 6.724 39.369 69.347 H 0.0 **** 0.0
15539 H 5.063 39.026 68.807 H 0.0 **** 0.0
15540 H 6.073 37.717 69.465 H 0.0 **** 0.0
15541 C 81.878 54.067 23.368 C 0.0 **** 0.0
15542 H 81.784 54.705 22.489 H 0.0 **** 0.0
15543 H 82.562 53.246 23.15 H 0.0 **** 0.0
15544 H 80.9 53.666 23.632 H 0.0 **** 0.0
15545 H 82.267 54.653 24.202 H 0.0 **** 0.0
15546 C 15.788 97.523 96.19 C 0.0 **** 0.0
15547 H 16.251 96.674 95.687 H 0.0 **** 0.0
15548 H 14.792 97.242 96.534 H 0.0 **** 0.0
15549 H 15.71 98.359 95.494 H 0.0 **** 0.0
15550 H 16.398 97.817 97.044 H 0.0 **** 0.0
15551 C 28.739 86.848 86.827 C 0.0 **** 0.0
15552 H 29.338 86.179 87.444 H 0.0 **** 0.0
15553 H 28.65 86.433 85.822 H 0.0 **** 0.0
15554 H 29.221 87.824 86.776 H 0.0 **** 0.0
15555 H 27.747 86.955 87.265 H 0.0 **** 0.0
15556 C 17.259 10.547 56.761 C 0.0 **** 0.0
15557 H 17.71 10.511 57.752 H 0.0 **** 0.0
15558 H 16.785 9.59 56.542 H 0.0 **** 0.0
15559 H 18.03 10.75 56.017 H 0.0 **** 0.0
15560 H 16.509 11.338 56.732 H 0.0 **** 0.0
15561 C 92.596 90.201 16.609 C 0.0 **** 0.0
15562 H 92.798 89.258 16.101 H 0.0 **** 0.0
15563 H 93.378 90.393 17.344 H 0.0 **** 0.0
15564 H 91.631 90.142 17.113 H 0.0 **** 0.0
15565 H 92.577 91.01 15.879 H 0.0 **** 0.0
15566 C 16.693 47.381 54.332 C 0.0 **** 0.0
15567 H 17.316 47.239 55.215 H 0.0 **** 0.0
15568 H 16.711 46.475 53.726 H 0.0 **** 0.0
15569 H 17.078 48.217 53.748 H 0.0 **** 0.0
15570 H 15.669 47.593 54.639 H 0.0 **** 0.0
15571 C 20.125 1.232 16.923 C 0.0 **** 0.0
15572 H 20.134 1.226 18.013 H 0.0 **** 0.0
15573 H 19.12 1.462 16.569 H 0.0 **** 0.0
15574 H 20.427 0.253 16.552 H 0.0 **** 0.0
15575 H 20.821 1.989 16.559 H 0.0 **** 0.0
15576 C 86.006 15.589 6.63 C 0.0 **** 0.0
15577 H 86.012 15.565 5.541 H 0.0 **** 0.0
15578 H 86.599 16.435 6.978 H 0.0 **** 0.0
15579 H 86.431 14.663 7.017 H 0.0 **** 0.0
15580 H 84.981 15.694 6.985 H 0.0 **** 0.0
15581 C 74.461 47.584 33.562 C 0.0 **** 0.0
15582 H 75.412 48.057 33.317 H 0.0 **** 0.0
15583 H 74.395 46.619 33.061 H 0.0 **** 0.0
15584 H 73.643 48.223 33.231 H 0.0 **** 0.0
15585 H 74.395 47.44 34.641 H 0.0 **** 0.0
15586 C 14.129 95.525 30.536 C 0.0 **** 0.0
15587 H 15.129 95.181 30.799 H 0.0 **** 0.0
15588 H 13.955 96.506 30.976 H 0.0 **** 0.0
15589 H 13.391 94.819 30.916 H 0.0 **** 0.0
15590 H 14.043 95.592 29.451 H 0.0 **** 0.0
15591 C 4.553 26.187 64.629 C 0.0 **** 0.0
15592 H 5.05 26.244 63.661 H 0.0 **** 0.0
15593 H 4.498 27.183 65.069 H 0.0 **** 0.0
15594 H 5.118 25.529 65.289 H 0.0 **** 0.0
15595 H 3.545 25.792 64.497 H 0.0 **** 0.0
15596 C 21.523 3.595 54.148 C 0.0 **** 0.0
15597 H 21.22 4.24 54.973 H 0.0 **** 0.0
15598 H 22.55 3.827 53.864 H 0.0 **** 0.0
15599 H 20.864 3.76 53.296 H 0.0 **** 0.0
15600 H 21.459 2.552 54.461 H 0.0 **** 0.0
15601 C 1.346 58.353 92.617 C 0.0 **** 0.0
15602 H 1.391 58.138 93.685 H 0.0 **** 0.0
15603 H 0.427 57.937 92.202 H 0.0 **** 0.0
15604 H 2.206 57.904 92.12 H 0.0 **** 0.0
15605 H 1.359 59.431 92.462 H 0.0 **** 0.0
15606 C 77.771 19.427 49.669 C 0.0 **** 0.0
15607 H 77.993 19.349 50.734 H 0.0 **** 0.0
15608 H 76.713 19.223 49.503 H 0.0 **** 0.0
15609 H 78.372 18.702 49.12 H 0.0 **** 0.0
15610 H 78.007 20.433 49.322 H 0.0 **** 0.0
15611 C 7.767 59.428 61.147 C 0.0 **** 0.0
15612 H 7.881 59.367 62.23 H 0.0 **** 0.0
15613 H 7.062 58.666 60.813 H 0.0 **** 0.0
15614 H 8.733 59.264 60.671 H 0.0 **** 0.0
15615 H 7.391 60.415 60.877 H 0.0 **** 0.0
15616 C 18.414 29.812 13.423 C 0.0 **** 0.0
15617 H 17.822 30.482 14.047 H 0.0 **** 0.0
15618 H 17.748 29.217 12.797 H 0.0 **** 0.0
15619 H 19.004 29.151 14.057 H 0.0 **** 0.0
15620 H 19.079 30.398 12.79 H 0.0 **** 0.0
15621 C 63.32 47.041 95.66 C 0.0 **** 0.0
15622 H 63.228 47.802 96.436 H 0.0 **** 0.0
15623 H 63.985 47.402 94.875 H 0.0 **** 0.0
15624 H 62.337 46.834 95.237 H 0.0 **** 0.0
15625 H 63.729 46.129 96.093 H 0.0 **** 0.0
15626 C 48.825 8.9 55.432 C 0.0 **** 0.0
15627 H 48.963 9.98 55.367 H 0.0 **** 0.0
15628 H 48.079 8.585 54.702 H 0.0 **** 0.0
15629 H 48.486 8.637 56.434 H 0.0 **** 0.0
15630 H 49.771 8.4 55.225 H 0.0 **** 0.0
15631 C 96.686 38.979 4.842 C 0.0 **** 0.0
15632 H 97.733 39.249 4.98 H 0.0 **** 0.0
15633 H 96.065 39.579 5.507 H 0.0 **** 0.0
15634 H 96.55 37.922 5.073 H 0.0 **** 0.0
15635 H 96.398 39.165 3.807 H 0.0 **** 0.0
15636 C 58.384 41.02 8.844 C 0.0 **** 0.0
15637 H 57.863 41.072 7.889 H 0.0 **** 0.0
15638 H 57.853 41.623 9.581 H 0.0 **** 0.0
15639 H 59.398 41.401 8.725 H 0.0 **** 0.0
15640 H 58.422 39.984 9.182 H 0.0 **** 0.0
15641 C 75.586 78.171 47.208 C 0.0 **** 0.0
15642 H 75.615 78.778 48.113 H 0.0 **** 0.0
15643 H 76.563 77.717 47.044 H 0.0 **** 0.0
15644 H 75.329 78.8 46.356 H 0.0 **** 0.0
15645 H 74.836 77.388 47.321 H 0.0 **** 0.0
15646 C 70.035 50.647 50.095 C 0.0 **** 0.0
15647 H 70.834 50.856 50.806 H 0.0 **** 0.0
15648 H 70.454 50.567 49.092 H 0.0 **** 0.0
15649 H 69.305 51.456 50.12 H 0.0 **** 0.0
15650 H 69.548 49.709 50.362 H 0.0 **** 0.0
15651 C 19.785 54.367 75.003 C 0.0 **** 0.0
15652 H 19.914 54.153 73.942 H 0.0 **** 0.0
15653 H 19.061 53.67 75.428 H 0.0 **** 0.0
15654 H 19.423 55.387 75.126 H 0.0 **** 0.0
15655 H 20.74 54.255 75.515 H 0.0 **** 0.0
15656 C 89.23 87.453 46.709 C 0.0 **** 0.0
15657 H 88.732 87.232 45.766 H 0.0 **** 0.0
15658 H 89.743 88.412 46.633 H 0.0 **** 0.0
15659 H 89.956 86.67 46.929 H 0.0 **** 0.0
15660 H 88.491 87.498 47.509 H 0.0 **** 0.0
15661 C 14.769 83.79 57.705 C 0.0 **** 0.0
15662 H 14.857 84.873 57.621 H 0.0 **** 0.0
15663 H 14.163 83.41 56.882 H 0.0 **** 0.0
15664 H 14.296 83.536 58.653 H 0.0 **** 0.0
15665 H 15.762 83.341 57.662 H 0.0 **** 0.0
15666 C 22.504 31.616 86.801 C 0.0 **** 0.0
15667 H 22.479 32.613 87.24 H 0.0 **** 0.0
15668 H 22.062 30.902 87.496 H 0.0 **** 0.0
15669 H 23.538 31.335 86.598 H 0.0 **** 0.0
15670 H 21.939 31.616 85.869 H 0.0 **** 0.0
15671 C 48.17 80.593 47.573 C 0.0 **** 0.0
15672 H 48.361 79.667 47.03 H 0.0 **** 0.0
15673 H 47.695 81.312 46.906 H 0.0 **** 0.0
15674 H 49.112 81.001 47.937 H 0.0 **** 0.0
15675 H 47.511 80.389 48.417 H 0.0 **** 0.0
15676 C 8.475 62.141 89.046 C 0.0 **** 0.0
15677 H 8.216 61.851 88.027 H 0.0 **** 0.0
15678 H 7.972 61.479 89.751 H 0.0 **** 0.0
15679 H 8.158 63.169 89.223 H 0.0 **** 0.0
15680 H 9.554 62.065 89.181 H 0.0 **** 0.0
15681 C 86.869 45.454 61.365 C 0.0 **** 0.0
15682 H 86.85 46.461 60.949 H 0.0 **** 0.0
15683 H 85.908 45.235 61.831 H 0.0 **** 0.0
15684 H 87.66 45.384 62.112 H 0.0 **** 0.0
15685 H 87.059 44.736 60.567 H 0.0 **** 0.0
15686 C 57.832 26.201 40.815 C 0.0 **** 0.0
15687 H 57.532 26.033 39.78 H 0.0 **** 0.0
15688 H 58.911 26.354 40.859 H 0.0 **** 0.0
15689 H 57.563 25.334 41.417 H 0.0 **** 0.0
15690 H 57.324 27.084 41.201 H 0.0 **** 0.0
15691 C 24.591 9.943 77.809 C 0.0 **** 0.0
15692 H 24.615 10.168 76.743 H 0.0 **** 0.0
15693 H 23.857 10.583 78.299 H 0.0 **** 0.0
15694 H 25.576 10.124 78.241 H 0.0 **** 0.0
15695 H 24.318 8.898 77.954 H 0.0 **** 0.0
15696 C 15.225 42.061 95.843 C 0.0 **** 0.0
15697 H 15.261 42.093 94.754 H 0.0 **** 0.0
15698 H 15.552 43.02 96.245 H 0.0 **** 0.0
15699 H 15.883 41.271 96.205 H 0.0 **** 0.0
15700 H 14.203 41.86 96.166 H 0.0 **** 0.0
15701 C 21.278 81.984 15.665 C 0.0 **** 0.0
15702 H 21.274 82.497 14.702 H 0.0 **** 0.0
15703 H 20.309 82.114 16.148 H 0.0 **** 0.0
15704 H 22.06 82.405 16.297 H 0.0 **** 0.0
15705 H 21.468 80.922 15.509 H 0.0 **** 0.0
15706 C 95.859 63.392 17.694 C 0.0 **** 0.0
15707 H 95.804 63.42 18.782 H 0.0 **** 0.0
15708 H 96.849 63.715 17.373 H 0.0 **** 0.0
15709 H 95.105 64.058 17.275 H 0.0 **** 0.0
15710 H 95.678 62.374 17.348 H 0.0 **** 0.0
15711 C 56.589 78.288 86.361 C 0.0 **** 0.0
15712 H 56.219 79.133 86.942 H 0.0 **** 0.0
15713 H 57.679 78.292 86.368 H 0.0 **** 0.0
15714 H 56.232 78.37 85.334 H 0.0 **** 0.0
15715 H 56.225 77.359 86.799 H 0.0 **** 0.0
15716 C 68.482 6.168 92.222 C 0.0 **** 0.0
15717 H 69.473 6.023 91.792 H 0.0 **** 0.0
15718 H 67.905 6.84 91.586 H 0.0 **** 0.0
15719 H 68.579 6.603 93.217 H 0.0 **** 0.0
15720 H 67.972 5.208 92.293 H 0.0 **** 0.0
15721 C 48.689 32.298 79.787 C 0.0 **** 0.0
15722 H 48.689 32.303 78.697 H 0.0 **** 0.0
15723 H 48.802 31.275 80.147 H 0.0 **** 0.0
15724 H 47.748 32.71 80.152 H 0.0 **** 0.0
15725 H 49.517 32.906 80.153 H 0.0 **** 0.0
15726 C 24.241 65.614 54.813 C 0.0 **** 0.0
15727 H 24.155 64.829 54.062 H 0.0 **** 0.0
15728 H 23.258 65.821 55.237 H 0.0 **** 0.0
15729 H 24.635 66.519 54.35 H 0.0 **** 0.0
15730 H 24.916 65.287 55.604 H 0.0 **** 0.0
15731 C 7.395 66.554 28.871 C 0.0 **** 0.0
15732 H 7.345 66.354 29.941 H 0.0 **** 0.0
15733 H 6.436 66.946 28.529 H 0.0 **** 0.0
15734 H 7.621 65.63 28.339 H 0.0 **** 0.0
15735 H 8.178 67.287 28.675 H 0.0 **** 0.0
15736 C 45.769 79.236 8.942 C 0.0 **** 0.0
15737 H 45.889 79.073 7.871 H 0.0 **** 0.0
15738 H 46.747 79.216 9.424 H 0.0 **** 0.0
15739 H 45.142 78.45 9.362 H 0.0 **** 0.0
15740 H 45.3 80.205 9.112 H 0.0 **** 0.0
15741 C 23.183 47.915 89.789 C 0.0 **** 0.0
15742 H 24.153 48.398 89.904 H 0.0 **** 0.0
15743 H 23.073 47.56 88.764 H 0.0 **** 0.0
15744 H 22.392 48.631 90.013 H 0.0 **** 0.0
15745 H 23.114 47.071 90.476 H 0.0 **** 0.0
15746 C 40.017 39.994 86.418 C 0.0 **** 0.0
15747 H 38.975 39.799 86.161 H 0.0 **** 0.0
15748 H 40.659 39.659 85.603 H 0.0 **** 0.0
15749 H 40.273 39.454 87.329 H 0.0 **** 0.0
15750 H 40.158 41.063 86.576 H 0.0 **** 0.0
15751 C 19.098 92.951 42.551 C 0.0 **** 0.0
15752 H 19.731 93.747 42.943 H 0.0 **** 0.0
15753 H 19.252 92.044 43.135 H 0.0 **** 0.0
15754 H 19.356 92.761 41.509 H 0.0 **** 0.0
15755 H 18.052 93.252 42.617 H 0.0 **** 0.0
15756 C 68.205 61.846 41.013 C 0.0 **** 0.0
15757 H 67.537 62.654 41.314 H 0.0 **** 0.0
15758 H 67.656 61.13 40.402 H 0.0 **** 0.0
15759 H 68.592 61.346 41.9 H 0.0 **** 0.0
15760 H 69.034 62.256 40.436 H 0.0 **** 0.0
15761 C 97.749 1.849 1.162 C 0.0 **** 0.0
15762 H 98.075 0.88 0.783 H 0.0 **** 0.0
15763 H 98.346 2.117 2.034 H 0.0 **** 0.0
15764 H 96.697 1.793 1.445 H 0.0 **** 0.0
15765 H 97.877 2.604 0.387 H 0.0 **** 0.0
15766 C 49.061 13.19 56.529 C 0.0 **** 0.0
15767 H 48.422 12.332 56.318 H 0.0 **** 0.0
15768 H 50.079 12.972 56.205 H 0.0 **** 0.0
15769 H 49.055 13.392 57.6 H 0.0 **** 0.0
15770 H 48.687 14.062 55.992 H 0.0 **** 0.0
15771 C 15.053 7.308 89.482 C 0.0 **** 0.0
15772 H 15.316 7.472 88.437 H 0.0 **** 0.0
15773 H 15.914 7.533 90.112 H 0.0 **** 0.0
15774 H 14.761 6.267 89.624 H 0.0 **** 0.0
15775 H 14.223 7.959 89.754 H 0.0 **** 0.0
15776 C 75.219 64.102 72.818 C 0.0 **** 0.0
15777 H 75.333 65.091 73.261 H 0.0 **** 0.0
15778 H 74.644 64.181 71.895 H 0.0 **** 0.0
15779 H 74.695 63.449 73.517 H 0.0 **** 0.0
15780 H 76.202 63.686 72.6 H 0.0 **** 0.0
15781 C 31.18 3.578 19.862 C 0.0 **** 0.0
15782 H 31.249 3.835 20.919 H 0.0 **** 0.0
15783 H 31.018 2.504 19.76 H 0.0 **** 0.0
15784 H 32.107 3.855 19.36 H 0.0 **** 0.0
15785 H 30.347 4.116 19.411 H 0.0 **** 0.0
15786 C 80.187 41.388 46.772 C 0.0 **** 0.0
15787 H 81.232 41.64 46.593 H 0.0 **** 0.0
15788 H 79.751 42.114 47.46 H 0.0 **** 0.0
15789 H 80.123 40.391 47.207 H 0.0 **** 0.0
15790 H 79.642 41.409 45.829 H 0.0 **** 0.0
15791 C 83.846 23.868 57.994 C 0.0 **** 0.0
15792 H 84.146 22.859 57.712 H 0.0 **** 0.0
15793 H 83.448 24.385 57.121 H 0.0 **** 0.0
15794 H 84.71 24.411 58.376 H 0.0 **** 0.0
15795 H 83.078 23.816 58.767 H 0.0 **** 0.0
15796 C 30.357 77.872 34.415 C 0.0 **** 0.0
15797 H 30.334 77.691 33.34 H 0.0 **** 0.0
15798 H 30.494 76.926 34.939 H 0.0 **** 0.0
15799 H 29.417 78.327 34.727 H 0.0 **** 0.0
15800 H 31.182 78.542 34.653 H 0.0 **** 0.0
15801 C 55.099 87.214 61.953 C 0.0 **** 0.0
15802 H 55.173 87.253 63.04 H 0.0 **** 0.0
15803 H 55.94 86.647 61.552 H 0.0 **** 0.0
15804 H 55.118 88.226 61.551 H 0.0 **** 0.0
15805 H 54.165 86.728 61.671 H 0.0 **** 0.0
15806 C 21.924 42.025 46.817 C 0.0 **** 0.0
15807 H 21.438 41.311 46.152 H 0.0 **** 0.0
15808 H 22.126 41.548 47.776 H 0.0 **** 0.0
15809 H 21.269 42.884 46.969 H 0.0 **** 0.0
15810 H 22.861 42.357 46.371 H 0.0 **** 0.0
15811 C 91.093 68.745 63.742 C 0.0 **** 0.0
15812 H 91.595 68.691 64.708 H 0.0 **** 0.0
15813 H 90.02 68.616 63.883 H 0.0 **** 0.0
15814 H 91.472 67.958 63.091 H 0.0 **** 0.0
15815 H 91.286 69.717 63.287 H 0.0 **** 0.0
15816 C 82.47 64.395 30.604 C 0.0 **** 0.0
15817 H 83.376 64.099 31.133 H 0.0 **** 0.0
15818 H 81.598 64.13 31.202 H 0.0 **** 0.0
15819 H 82.424 63.879 29.645 H 0.0 **** 0.0
15820 H 82.482 65.472 30.436 H 0.0 **** 0.0
15821 C 49.845 39.583 36.938 C 0.0 **** 0.0
15822 H 49.762 38.56 37.304 H 0.0 **** 0.0
15823 H 50.894 39.881 36.925 H 0.0 **** 0.0
15824 H 49.285 40.25 37.594 H 0.0 **** 0.0
15825 H 49.438 39.641 35.928 H 0.0 **** 0.0
15826 C 12.06 58.389 91.041 C 0.0 **** 0.0
15827 H 13.064 58.347 90.621 H 0.0 **** 0.0
15828 H 12.058 57.918 92.024 H 0.0 **** 0.0
15829 H 11.368 57.863 90.384 H 0.0 **** 0.0
15830 H 11.749 59.43 91.137 H 0.0 **** 0.0
15831 C 28.662 13.22 49.968 C 0.0 **** 0.0
15832 H 28.013 12.732 49.24 H 0.0 **** 0.0
15833 H 29.16 12.463 50.574 H 0.0 **** 0.0
15834 H 28.065 13.866 50.611 H 0.0 **** 0.0
15835 H 29.409 13.817 49.445 H 0.0 **** 0.0
15836 C 20.839 64.525 90.638 C 0.0 **** 0.0
15837 H 19.983 64.67 91.298 H 0.0 **** 0.0
15838 H 21.702 64.213 91.226 H 0.0 **** 0.0
15839 H 21.066 65.461 90.127 H 0.0 **** 0.0
15840 H 20.603 63.757 89.902 H 0.0 **** 0.0
15841 C 53.829 8.258 91.239 C 0.0 **** 0.0
15842 H 54.347 8.23 90.28 H 0.0 **** 0.0
15843 H 54.558 8.206 92.047 H 0.0 **** 0.0
15844 H 53.147 7.41 91.308 H 0.0 **** 0.0
15845 H 53.263 9.186 91.318 H 0.0 **** 0.0
15846 C 66.561 54.007 40.256 C 0.0 **** 0.0
15847 H 65.897 54.866 40.349 H 0.0 **** 0.0
15848 H 66.268 53.242 40.976 H 0.0 **** 0.0
15849 H 67.587 54.318 40.453 H 0.0 **** 0.0
15850 H 66.491 53.602 39.247 H 0.0 **** 0.0
15851 C 42.959 34.331 11.861 C 0.0 **** 0.0
15852 H 42.977 34.606 12.916 H 0.0 **** 0.0
15853 H 42.48 35.125 11.287 H 0.0 **** 0.0
15854 H 42.4 33.404 11.738 H 0.0 **** 0.0
15855 H 43.98 34.191 11.505 H 0.0 **** 0.0
15856 C 41.811 29.31 69.329 C 0.0 **** 0.0
15857 H 42.417 30.076 69.812 H 0.0 **** 0.0
15858 H 41.672 28.473 70.013 H 0.0 **** 0.0
15859 H 42.316 28.963 68.428 H 0.0 **** 0.0
15860 H 40.841 29.729 69.063 H 0.0 **** 0.0
15861 C 85.386 78.97 17.271 C 0.0 **** 0.0
15862 H 85.825 79.034 18.267 H 0.0 **** 0.0
15863 H 85.229 77.924 17.01 H 0.0 **** 0.0
15864 H 86.06 79.429 16.548 H 0.0 **** 0.0
15865 H 84.431 79.495 17.261 H 0.0 **** 0.0
15866 C 14.407 15.825 28.234 C 0.0 **** 0.0
15867 H 13.624 16.511 27.91 H 0.0 **** 0.0
15868 H 13.977 15.069 28.891 H 0.0 **** 0.0
15869 H 15.175 16.38 28.772 H 0.0 **** 0.0
15870 H 14.849 15.342 27.363 H 0.0 **** 0.0
15871 C 59.303 55.251 14.373 C 0.0 **** 0.0
15872 H 59.5 54.738 15.315 H 0.0 **** 0.0
15873 H 59.312 54.528 13.557 H 0.0 **** 0.0
15874 H 60.074 56.003 14.202 H 0.0 **** 0.0
15875 H 58.327 55.735 14.42 H 0.0 **** 0.0
15876 C 60.27 49.108 55.394 C 0.0 **** 0.0
15877 H 61.061 49.727 54.971 H 0.0 **** 0.0
15878 H 59.742 48.595 54.59 H 0.0 **** 0.0
15879 H 59.571 49.739 55.944 H 0.0 **** 0.0
15880 H 60.706 48.373 56.07 H 0.0 **** 0.0
15881 C 86.1 89.427 47.733 C 0.0 **** 0.0
15882 H 85.362 90.079 47.266 H 0.0 **** 0.0
15883 H 86.166 88.494 47.173 H 0.0 **** 0.0
15884 H 85.799 89.216 48.759 H 0.0 **** 0.0
15885 H 87.072 89.921 47.734 H 0.0 **** 0.0
15886 C 87.921 16.85 32.458 C 0.0 **** 0.0
15887 H 87.147 16.948 33.218 H 0.0 **** 0.0
15888 H 88.161 17.834 32.054 H 0.0 **** 0.0
15889 H 87.563 16.205 31.655 H 0.0 **** 0.0
15890 H 88.815 16.413 32.904 H 0.0 **** 0.0
15891 C 17.372 20.507 92.937 C 0.0 **** 0.0
15892 H 17.225 21.573 93.111 H 0.0 **** 0.0
15893 H 18.252 20.359 92.31 H 0.0 **** 0.0
15894 H 16.495 20.095 92.438 H 0.0 **** 0.0
15895 H 17.517 20.001 93.892 H 0.0 **** 0.0
15896 C 9.88 69.467 20.128 C 0.0 **** 0.0
15897 H 9.055 69.329 19.428 H 0.0 **** 0.0
15898 H 9.488 69.803 21.088 H 0.0 **** 0.0
15899 H 10.569 70.214 19.734 H 0.0 **** 0.0
15900 H 10.406 68.522 20.26 H 0.0 **** 0.0
15901 C 74.792 14.849 74.16 C 0.0 **** 0.0
15902 H 75.246 15.816 74.374 H 0.0 **** 0.0
15903 H 74.733 14.264 75.078 H 0.0 **** 0.0
15904 H 75.399 14.317 73.428 H 0.0 **** 0.0
15905 H 73.789 15.0 73.759 H 0.0 **** 0.0
15906 C 45.074 28.53 44.669 C 0.0 **** 0.0
15907 H 44.484 28.143 43.838 H 0.0 **** 0.0
15908 H 45.923 27.871 44.849 H 0.0 **** 0.0
15909 H 44.454 28.578 45.564 H 0.0 **** 0.0
15910 H 45.435 29.529 44.423 H 0.0 **** 0.0
15911 C 53.226 76.121 40.062 C 0.0 **** 0.0
15912 H 53.226 76.389 41.118 H 0.0 **** 0.0
15913 H 52.58 75.256 39.908 H 0.0 **** 0.0
15914 H 54.241 75.877 39.749 H 0.0 **** 0.0
15915 H 52.856 76.961 39.474 H 0.0 **** 0.0
15916 C 29.418 17.644 91.476 C 0.0 **** 0.0
15917 H 29.438 17.714 92.563 H 0.0 **** 0.0
15918 H 29.853 18.546 91.046 H 0.0 **** 0.0
15919 H 28.388 17.539 91.137 H 0.0 **** 0.0
15920 H 29.995 16.775 91.158 H 0.0 **** 0.0
15921 C 29.457 87.143 80.934 C 0.0 **** 0.0
15922 H 29.265 86.62 81.871 H 0.0 **** 0.0
15923 H 30.093 86.528 80.298 H 0.0 **** 0.0
15924 H 29.956 88.089 81.143 H 0.0 **** 0.0
15925 H 28.511 87.335 80.426 H 0.0 **** 0.0
15926 C 69.629 59.903 29.377 C 0.0 **** 0.0
15927 H 69.916 60.831 28.883 H 0.0 **** 0.0
15928 H 70.255 59.751 30.256 H 0.0 **** 0.0
15929 H 69.76 59.069 28.688 H 0.0 **** 0.0
15930 H 68.584 59.962 29.681 H 0.0 **** 0.0
15931 C 37.315 56.188 40.31 C 0.0 **** 0.0
15932 H 37.934 56.048 39.424 H 0.0 **** 0.0
15933 H 36.772 57.129 40.228 H 0.0 **** 0.0
15934 H 37.95 56.21 41.196 H 0.0 **** 0.0
15935 H 36.606 55.364 40.392 H 0.0 **** 0.0
15936 C 6.363 65.37 51.619 C 0.0 **** 0.0
15937 H 6.058 64.915 50.676 H 0.0 **** 0.0
15938 H 5.741 66.243 51.819 H 0.0 **** 0.0
15939 H 7.407 65.675 51.554 H 0.0 **** 0.0
15940 H 6.245 64.647 52.426 H 0.0 **** 0.0
15941 C 52.569 26.545 64.55 C 0.0 **** 0.0
15942 H 51.597 26.543 65.044 H 0.0 **** 0.0
15943 H 53.272 27.136 65.137 H 0.0 **** 0.0
15944 H 52.47 26.98 63.556 H 0.0 **** 0.0
15945 H 52.935 25.522 64.465 H 0.0 **** 0.0
15946 C 68.884 50.396 28.16 C 0.0 **** 0.0
15947 H 69.301 50.115 29.127 H 0.0 **** 0.0
15948 H 69.478 49.946 27.364 H 0.0 **** 0.0
15949 H 68.903 51.481 28.058 H 0.0 **** 0.0
15950 H 67.856 50.042 28.092 H 0.0 **** 0.0
15951 C 82.223 78.12 41.451 C 0.0 **** 0.0
15952 H 82.374 77.176 40.927 H 0.0 **** 0.0
15953 H 82.388 78.948 40.763 H 0.0 **** 0.0
15954 H 82.927 78.19 42.281 H 0.0 **** 0.0
15955 H 81.204 78.163 41.835 H 0.0 **** 0.0
15956 C 7.756 25.594 43.524 C 0.0 **** 0.0
15957 H 8.272 25.582 42.564 H 0.0 **** 0.0
15958 H 6.7 25.816 43.366 H 0.0 **** 0.0
15959 H 8.196 26.36 44.163 H 0.0 **** 0.0
15960 H 7.855 24.62 44.002 H 0.0 **** 0.0
15961 C 52.977 32.335 54.062 C 0.0 **** 0.0
15962 H 52.554 33.254 54.468 H 0.0 **** 0.0
15963 H 52.54 31.477 54.572 H 0.0 **** 0.0
15964 H 54.057 32.336 54.212 H 0.0 **** 0.0
15965 H 52.758 32.274 52.996 H 0.0 **** 0.0
15966 C 22.221 21.284 39.125 C 0.0 **** 0.0
15967 H 22.01 20.766 38.189 H 0.0 **** 0.0
15968 H 23.11 20.853 39.586 H 0.0 **** 0.0
15969 H 21.372 21.174 39.8 H 0.0 **** 0.0
15970 H 22.391 22.341 38.925 H 0.0 **** 0.0
15971 C 10.292 14.263 76.745 C 0.0 **** 0.0
15972 H 11.293 13.845 76.64 H 0.0 **** 0.0
15973 H 10.285 14.99 77.557 H 0.0 **** 0.0
15974 H 9.586 13.462 76.969 H 0.0 **** 0.0
15975 H 10.003 14.753 75.815 H 0.0 **** 0.0
15976 C 23.347 68.898 76.376 C 0.0 **** 0.0
15977 H 24.114 69.332 75.735 H 0.0 **** 0.0
15978 H 22.363 69.09 75.947 H 0.0 **** 0.0
15979 H 23.405 69.347 77.367 H 0.0 **** 0.0
15980 H 23.506 67.822 76.455 H 0.0 **** 0.0
15981 C 93.52 31.443 65.781 C 0.0 **** 0.0
15982 H 92.59 31.604 66.326 H 0.0 **** 0.0
15983 H 94.127 30.706 66.308 H 0.0 **** 0.0
15984 H 94.067 32.383 65.712 H 0.0 **** 0.0
15985 H 93.294 31.08 64.778 H 0.0 **** 0.0
15986 C 72.532 91.738 28.787 C 0.0 **** 0.0
15987 H 72.623 90.71 28.437 H 0.0 **** 0.0
15988 H 73.023 92.407 28.08 H 0.0 **** 0.0
15989 H 73.006 91.831 29.765 H 0.0 **** 0.0
15990 H 71.478 92.003 28.867 H 0.0 **** 0.0
15991 C 56.911 48.543 42.54 C 0.0 **** 0.0
15992 H 57.997 48.597 42.625 H 0.0 **** 0.0
15993 H 56.524 49.51 42.217 H 0.0 **** 0.0
15994 H 56.484 48.286 43.509 H 0.0 **** 0.0
15995 H 56.642 47.78 41.81 H 0.0 **** 0.0
15996 C 72.685 4.656 81.652 C 0.0 **** 0.0
15997 H 72.715 4.688 82.741 H 0.0 **** 0.0
15998 H 71.675 4.408 81.324 H 0.0 **** 0.0
15999 H 73.381 3.898 81.291 H 0.0 **** 0.0
16000 H 72.968 5.629 81.252 H 0.0 **** 0.0
16001 C 14.469 45.635 20.544 C 0.0 **** 0.0
16002 H 14.523 44.572 20.31 H 0.0 **** 0.0
16003 H 14.18 45.762 21.588 H 0.0 **** 0.0
16004 H 13.729 46.111 19.901 H 0.0 **** 0.0
16005 H 15.444 46.093 20.378 H 0.0 **** 0.0
16006 C 56.225 83.538 55.417 C 0.0 **** 0.0
16007 H 55.415 84.192 55.097 H 0.0 **** 0.0
16008 H 56.261 83.511 56.507 H 0.0 **** 0.0
16009 H 57.172 83.916 55.032 H 0.0 **** 0.0
16010 H 56.053 82.532 55.034 H 0.0 **** 0.0
16011 C 12.027 47.1 70.644 C 0.0 **** 0.0
16012 H 11.502 46.239 70.23 H 0.0 **** 0.0
16013 H 13.073 46.841 70.811 H 0.0 **** 0.0
16014 H 11.567 47.385 71.59 H 0.0 **** 0.0
16015 H 11.966 47.933 69.944 H 0.0 **** 0.0
16016 C 53.445 47.995 19.353 C 0.0 **** 0.0
16017 H 53.233 48.033 18.285 H 0.0 **** 0.0
16018 H 52.519 47.82 19.901 H 0.0 **** 0.0
16019 H 53.882 48.942 19.671 H 0.0 **** 0.0
16020 H 54.146 47.186 19.556 H 0.0 **** 0.0
16021 C 35.375 52.06 77.045 C 0.0 **** 0.0
16022 H 35.383 52.88 76.326 H 0.0 **** 0.0
16023 H 34.568 52.215 77.762 H 0.0 **** 0.0
16024 H 36.329 52.03 77.572 H 0.0 **** 0.0
16025 H 35.219 51.118 76.52 H 0.0 **** 0.0
16026 C 39.788 81.491 64.088 C 0.0 **** 0.0
16027 H 39.284 80.748 64.707 H 0.0 **** 0.0
16028 H 39.058 82.213 63.722 H 0.0 **** 0.0
16029 H 40.266 80.995 63.243 H 0.0 **** 0.0
16030 H 40.543 82.006 64.682 H 0.0 **** 0.0
16031 C 84.487 39.206 12.687 C 0.0 **** 0.0
16032 H 84.487 39.203 13.777 H 0.0 **** 0.0
16033 H 85.307 38.587 12.323 H 0.0 **** 0.0
16034 H 84.613 40.227 12.327 H 0.0 **** 0.0
16035 H 83.54 38.806 12.324 H 0.0 **** 0.0
16036 C 24.951 79.981 79.557 C 0.0 **** 0.0
16037 H 24.58 80.998 79.686 H 0.0 **** 0.0
16038 H 26.03 79.966 79.714 H 0.0 **** 0.0
16039 H 24.726 79.638 78.547 H 0.0 **** 0.0
16040 H 24.469 79.324 80.281 H 0.0 **** 0.0
16041 C 96.748 38.738 60.82 C 0.0 **** 0.0
16042 H 96.306 38.874 61.807 H 0.0 **** 0.0
16043 H 96.798 39.7 60.309 H 0.0 **** 0.0
16044 H 96.135 38.05 60.239 H 0.0 **** 0.0
16045 H 97.753 38.329 60.926 H 0.0 **** 0.0
16046 C 42.883 51.363 18.562 C 0.0 **** 0.0
16047 H 42.37 51.675 17.652 H 0.0 **** 0.0
16048 H 43.956 51.516 18.444 H 0.0 **** 0.0
16049 H 42.685 50.307 18.747 H 0.0 **** 0.0
16050 H 42.522 51.954 19.404 H 0.0 **** 0.0
16051 C 75.549 56.386 87.613 C 0.0 **** 0.0
16052 H 75.886 57.209 88.244 H 0.0 **** 0.0
16053 H 75.911 55.443 88.021 H 0.0 **** 0.0
16054 H 75.938 56.52 86.603 H 0.0 **** 0.0
16055 H 74.459 56.375 87.583 H 0.0 **** 0.0
16056 C 57.792 65.794 62.377 C 0.0 **** 0.0
16057 H 56.925 66.313 62.784 H 0.0 **** 0.0
16058 H 57.906 64.831 62.875 H 0.0 **** 0.0
16059 H 58.686 66.396 62.541 H 0.0 **** 0.0
16060 H 57.652 65.635 61.307 H 0.0 **** 0.0
16061 C 5.545 94.458 54.746 C 0.0 **** 0.0
16062 H 6.53 94.734 55.123 H 0.0 **** 0.0
16063 H 4.841 94.404 55.577 H 0.0 **** 0.0
16064 H 5.603 93.487 54.254 H 0.0 **** 0.0
16065 H 5.207 95.208 54.031 H 0.0 **** 0.0
16066 C 97.793 96.615 47.249 C 0.0 **** 0.0
16067 H 98.619 97.178 47.685 H 0.0 **** 0.0
16068 H 98.163 95.661 46.873 H 0.0 **** 0.0
16069 H 97.358 97.185 46.429 H 0.0 **** 0.0
16070 H 97.034 96.436 48.011 H 0.0 **** 0.0
16071 C 85.176 36.652 10.263 C 0.0 **** 0.0
16072 H 84.228 36.584 9.728 H 0.0 **** 0.0
16073 H 85.05 36.269 11.275 H 0.0 **** 0.0
16074 H 85.494 37.694 10.305 H 0.0 **** 0.0
16075 H 85.93 36.063 9.741 H 0.0 **** 0.0
16076 C 40.727 3.993 70.939 C 0.0 **** 0.0
16077 H 39.705 4.333 70.769 H 0.0 **** 0.0
16078 H 41.302 4.794 71.404 H 0.0 **** 0.0
16079 H 41.183 3.723 69.987 H 0.0 **** 0.0
16080 H 40.716 3.124 71.597 H 0.0 **** 0.0
16081 C 32.032 30.04 84.395 C 0.0 **** 0.0
16082 H 32.83 30.561 83.867 H 0.0 **** 0.0
16083 H 32.457 29.233 84.992 H 0.0 **** 0.0
16084 H 31.328 29.626 83.673 H 0.0 **** 0.0
16085 H 31.512 30.741 85.049 H 0.0 **** 0.0
16086 C 22.418 29.026 53.135 C 0.0 **** 0.0
16087 H 22.601 28.934 54.206 H 0.0 **** 0.0
16088 H 23.021 29.84 52.733 H 0.0 **** 0.0
16089 H 21.362 29.235 52.964 H 0.0 **** 0.0
16090 H 22.689 28.093 52.64 H 0.0 **** 0.0
16091 C 79.376 30.272 97.875 C 0.0 **** 0.0
16092 H 79.255 30.083 98.942 H 0.0 **** 0.0
16093 H 78.431 30.618 97.458 H 0.0 **** 0.0
16094 H 79.679 29.351 97.376 H 0.0 **** 0.0
16095 H 80.141 31.034 97.726 H 0.0 **** 0.0
16096 C 23.307 85.267 72.429 C 0.0 **** 0.0
16097 H 23.461 86.061 71.698 H 0.0 **** 0.0
16098 H 23.345 85.687 73.434 H 0.0 **** 0.0
16099 H 24.088 84.515 72.318 H 0.0 **** 0.0
16100 H 22.332 84.807 72.264 H 0.0 **** 0.0
16101 C 18.848 73.613 36.075 C 0.0 **** 0.0
16102 H 18.679 73.732 35.005 H 0.0 **** 0.0
16103 H 18.569 72.603 36.377 H 0.0 **** 0.0
16104 H 18.242 74.335 36.621 H 0.0 **** 0.0
16105 H 19.902 73.781 36.297 H 0.0 **** 0.0
16106 C 93.051 60.782 19.174 C 0.0 **** 0.0
16107 H 93.06 61.233 20.166 H 0.0 **** 0.0
16108 H 93.09 61.566 18.418 H 0.0 **** 0.0
16109 H 92.138 60.2 19.047 H 0.0 **** 0.0
16110 H 93.916 60.128 19.065 H 0.0 **** 0.0
16111 C 57.092 56.325 1.394 C 0.0 **** 0.0
16112 H 56.385 56.6 0.611 H 0.0 **** 0.0
16113 H 56.654 56.539 2.369 H 0.0 **** 0.0
16114 H 58.01 56.9 1.273 H 0.0 **** 0.0
16115 H 57.317 55.261 1.322 H 0.0 **** 0.0
16116 C 63.435 22.761 55.898 C 0.0 **** 0.0
16117 H 63.507 22.645 56.98 H 0.0 **** 0.0
16118 H 62.856 23.655 55.668 H 0.0 **** 0.0
16119 H 62.942 21.888 55.471 H 0.0 **** 0.0
16120 H 64.435 22.856 55.476 H 0.0 **** 0.0
16121 C 5.737 73.354 14.823 C 0.0 **** 0.0
16122 H 4.977 72.854 15.424 H 0.0 **** 0.0
16123 H 6.727 73.058 15.17 H 0.0 **** 0.0
16124 H 5.624 74.433 14.921 H 0.0 **** 0.0
16125 H 5.617 73.069 13.777 H 0.0 **** 0.0
16126 C 93.93 56.18 30.078 C 0.0 **** 0.0
16127 H 93.94 56.376 31.15 H 0.0 **** 0.0
16128 H 94.841 55.653 29.796 H 0.0 **** 0.0
16129 H 93.874 57.125 29.537 H 0.0 **** 0.0
16130 H 93.063 55.568 29.83 H 0.0 **** 0.0
16131 C 69.976 13.638 18.586 C 0.0 **** 0.0
16132 H 69.855 13.753 17.509 H 0.0 **** 0.0
16133 H 69.177 14.172 19.1 H 0.0 **** 0.0
16134 H 70.94 14.048 18.888 H 0.0 **** 0.0
16135 H 69.933 12.58 18.846 H 0.0 **** 0.0
16136 C 10.8 92.728 8.741 C 0.0 **** 0.0
16137 H 10.816 92.754 7.651 H 0.0 **** 0.0
16138 H 10.752 91.693 9.079 H 0.0 **** 0.0
16139 H 9.926 93.27 9.103 H 0.0 **** 0.0
16140 H 11.704 93.196 9.129 H 0.0 **** 0.0
16141 C 13.648 72.527 67.133 C 0.0 **** 0.0
16142 H 13.898 72.313 68.172 H 0.0 **** 0.0
16143 H 13.035 73.427 67.085 H 0.0 **** 0.0
16144 H 13.095 71.687 66.712 H 0.0 **** 0.0
16145 H 14.564 72.681 66.563 H 0.0 **** 0.0
16146 C 75.002 54.309 24.558 C 0.0 **** 0.0
16147 H 74.165 53.715 24.193 H 0.0 **** 0.0
16148 H 74.793 54.647 25.573 H 0.0 **** 0.0
16149 H 75.143 55.174 23.909 H 0.0 **** 0.0
16150 H 75.907 53.702 24.556 H 0.0 **** 0.0
16151 C 30.251 32.555 38.743 C 0.0 **** 0.0
16152 H 30.294 32.565 37.654 H 0.0 **** 0.0
16153 H 29.21 32.589 39.065 H 0.0 **** 0.0
16154 H 30.782 33.422 39.135 H 0.0 **** 0.0
16155 H 30.718 31.643 39.116 H 0.0 **** 0.0
16156 C 32.591 9.535 86.669 C 0.0 **** 0.0
16157 H 32.641 9.548 85.58 H 0.0 **** 0.0
16158 H 33.238 10.316 87.071 H 0.0 **** 0.0
16159 H 32.923 8.564 87.035 H 0.0 **** 0.0
16160 H 31.564 9.713 86.988 H 0.0 **** 0.0
16161 C 25.616 13.208 77.001 C 0.0 **** 0.0
16162 H 24.703 13.382 77.569 H 0.0 **** 0.0
16163 H 26.47 13.596 77.557 H 0.0 **** 0.0
16164 H 25.548 13.715 76.038 H 0.0 **** 0.0
16165 H 25.744 12.137 76.839 H 0.0 **** 0.0
16166 C 42.582 46.989 63.318 C 0.0 **** 0.0
16167 H 43.115 46.318 62.645 H 0.0 **** 0.0
16168 H 43.293 47.66 63.8 H 0.0 **** 0.0
16169 H 42.061 46.404 64.076 H 0.0 **** 0.0
16170 H 41.859 47.573 62.749 H 0.0 **** 0.0
16171 C 21.786 22.048 53.41 C 0.0 **** 0.0
16172 H 21.898 21.391 52.547 H 0.0 **** 0.0
16173 H 21.358 21.487 54.24 H 0.0 **** 0.0
16174 H 21.125 22.876 53.151 H 0.0 **** 0.0
16175 H 22.761 22.438 53.699 H 0.0 **** 0.0
16176 C 51.424 35.627 59.297 C 0.0 **** 0.0
16177 H 52.212 34.968 59.663 H 0.0 **** 0.0
16178 H 50.867 35.123 58.507 H 0.0 **** 0.0
16179 H 51.868 36.541 58.903 H 0.0 **** 0.0
16180 H 50.749 35.875 60.116 H 0.0 **** 0.0
16181 C 97.112 30.488 67.09 C 0.0 **** 0.0
16182 H 97.097 30.192 68.138 H 0.0 **** 0.0
16183 H 96.548 29.764 66.5 H 0.0 **** 0.0
16184 H 98.142 30.522 66.736 H 0.0 **** 0.0
16185 H 96.659 31.474 66.985 H 0.0 **** 0.0
16186 C 70.387 87.034 11.024 C 0.0 **** 0.0
16187 H 70.946 86.952 11.956 H 0.0 **** 0.0
16188 H 70.763 87.879 10.448 H 0.0 **** 0.0
16189 H 69.331 87.186 11.247 H 0.0 **** 0.0
16190 H 70.508 86.117 10.447 H 0.0 **** 0.0
16191 C 47.904 18.072 33.785 C 0.0 **** 0.0
16192 H 48.448 18.654 33.042 H 0.0 **** 0.0
16193 H 47.277 18.736 34.38 H 0.0 **** 0.0
16194 H 48.614 17.562 34.437 H 0.0 **** 0.0
16195 H 47.278 17.335 33.282 H 0.0 **** 0.0
16196 C 9.535 21.799 97.58 C 0.0 **** 0.0
16197 H 9.588 21.831 96.491 H 0.0 **** 0.0
16198 H 8.516 21.561 97.886 H 0.0 **** 0.0
16199 H 9.82 22.769 97.986 H 0.0 **** 0.0
16200 H 10.215 21.034 97.954 H 0.0 **** 0.0
16201 C 33.903 80.188 6.538 C 0.0 **** 0.0
16202 H 34.645 80.282 5.744 H 0.0 **** 0.0
16203 H 34.403 80.207 7.506 H 0.0 **** 0.0
16204 H 33.368 79.245 6.424 H 0.0 **** 0.0
16205 H 33.198 81.017 6.475 H 0.0 **** 0.0
16206 C 10.28 31.423 54.539 C 0.0 **** 0.0
16207 H 10.067 31.835 53.552 H 0.0 **** 0.0
16208 H 9.358 31.369 55.117 H 0.0 **** 0.0
16209 H 10.995 32.066 55.053 H 0.0 **** 0.0
16210 H 10.702 30.424 54.432 H 0.0 **** 0.0
16211 C 23.181 8.554 34.067 C 0.0 **** 0.0
16212 H 23.575 9.565 34.174 H 0.0 **** 0.0
16213 H 23.385 7.987 34.975 H 0.0 **** 0.0
16214 H 23.66 8.066 33.218 H 0.0 **** 0.0
16215 H 22.105 8.6 33.9 H 0.0 **** 0.0
16216 C 29.44 19.428 41.306 C 0.0 **** 0.0
16217 H 29.359 19.396 42.392 H 0.0 **** 0.0
16218 H 30.464 19.199 41.011 H 0.0 **** 0.0
16219 H 29.175 20.424 40.952 H 0.0 **** 0.0
16220 H 28.763 18.695 40.869 H 0.0 **** 0.0
16221 C 48.034 69.078 76.334 C 0.0 **** 0.0
16222 H 48.303 68.194 76.913 H 0.0 **** 0.0
16223 H 48.74 69.202 75.513 H 0.0 **** 0.0
16224 H 48.066 69.957 76.977 H 0.0 **** 0.0
16225 H 47.028 68.957 75.934 H 0.0 **** 0.0
16226 C 68.78 24.459 73.257 C 0.0 **** 0.0
16227 H 68.526 24.801 72.253 H 0.0 **** 0.0
16228 H 68.549 23.397 73.348 H 0.0 **** 0.0
16229 H 68.201 25.021 73.989 H 0.0 **** 0.0
16230 H 69.843 24.616 73.436 H 0.0 **** 0.0
16231 C 8.152 76.289 50.886 C 0.0 **** 0.0
16232 H 8.967 75.58 51.034 H 0.0 **** 0.0
16233 H 7.448 75.884 50.158 H 0.0 **** 0.0
16234 H 8.554 77.233 50.517 H 0.0 **** 0.0
16235 H 7.64 76.457 51.833 H 0.0 **** 0.0
16236 C 90.15 37.096 75.98 C 0.0 **** 0.0
16237 H 90.774 36.925 76.857 H 0.0 **** 0.0
16238 H 89.318 36.391 75.984 H 0.0 **** 0.0
16239 H 90.745 36.951 75.078 H 0.0 **** 0.0
16240 H 89.764 38.115 76.001 H 0.0 **** 0.0
16241 C 81.159 92.055 78.861 C 0.0 **** 0.0
16242 H 80.944 91.725 79.877 H 0.0 **** 0.0
16243 H 80.587 92.957 78.644 H 0.0 **** 0.0
16244 H 80.881 91.27 78.158 H 0.0 **** 0.0
16245 H 82.224 92.268 78.766 H 0.0 **** 0.0
16246 C 53.971 50.943 96.687 C 0.0 **** 0.0
16247 H 54.674 51.531 96.097 H 0.0 **** 0.0
16248 H 53.503 50.191 96.051 H 0.0 **** 0.0
16249 H 53.204 51.6 97.098 H 0.0 **** 0.0
16250 H 54.503 50.451 97.502 H 0.0 **** 0.0
16251 C 51.362 97.015 63.453 C 0.0 **** 0.0
16252 H 52.314 97.257 62.98 H 0.0 **** 0.0
16253 H 51.545 96.594 64.442 H 0.0 **** 0.0
16254 H 50.828 96.288 62.841 H 0.0 **** 0.0
16255 H 50.763 97.92 63.548 H 0.0 **** 0.0
16256 C 31.713 60.713 26.871 C 0.0 **** 0.0
16257 H 31.798 60.827 27.951 H 0.0 **** 0.0
16258 H 30.706 60.38 26.619 H 0.0 **** 0.0
16259 H 32.437 59.976 26.525 H 0.0 **** 0.0
16260 H 31.91 61.671 26.389 H 0.0 **** 0.0
16261 C 7.042 7.73 25.422 C 0.0 **** 0.0
16262 H 6.986 8.377 26.298 H 0.0 **** 0.0
16263 H 6.034 7.467 25.1 H 0.0 **** 0.0
16264 H 7.592 6.824 25.676 H 0.0 **** 0.0
16265 H 7.556 8.254 24.616 H 0.0 **** 0.0
16266 C 3.439 4.515 54.857 C 0.0 **** 0.0
16267 H 3.154 3.743 55.572 H 0.0 **** 0.0
16268 H 3.774 5.402 55.395 H 0.0 **** 0.0
16269 H 2.581 4.769 54.236 H 0.0 **** 0.0
16270 H 4.248 4.145 54.226 H 0.0 **** 0.0
16271 C 30.012 56.66 63.177 C 0.0 **** 0.0
16272 H 29.621 56.473 62.177 H 0.0 **** 0.0
16273 H 29.424 57.443 63.656 H 0.0 **** 0.0
16274 H 31.053 56.978 63.106 H 0.0 **** 0.0
16275 H 29.952 55.746 63.768 H 0.0 **** 0.0
16276 C 73.104 51.444 76.666 C 0.0 **** 0.0
16277 H 72.229 50.997 76.194 H 0.0 **** 0.0
16278 H 73.321 52.403 76.194 H 0.0 **** 0.0
16279 H 73.96 50.779 76.548 H 0.0 **** 0.0
16280 H 72.906 51.597 77.727 H 0.0 **** 0.0
16281 C 61.457 88.753 73.019 C 0.0 **** 0.0
16282 H 61.068 88.056 72.276 H 0.0 **** 0.0
16283 H 61.344 88.324 74.014 H 0.0 **** 0.0
16284 H 60.904 89.691 72.962 H 0.0 **** 0.0
16285 H 62.513 88.941 72.822 H 0.0 **** 0.0
16286 C 15.339 66.207 15.717 C 0.0 **** 0.0
16287 H 15.082 65.979 16.751 H 0.0 **** 0.0
16288 H 15.426 67.287 15.594 H 0.0 **** 0.0
16289 H 14.56 65.826 15.056 H 0.0 **** 0.0
16290 H 16.29 65.735 15.468 H 0.0 **** 0.0
16291 C 79.542 33.623 86.58 C 0.0 **** 0.0
16292 H 79.544 33.625 85.49 H 0.0 **** 0.0
16293 H 78.744 34.271 86.942 H 0.0 **** 0.0
16294 H 80.501 33.988 86.945 H 0.0 **** 0.0
16295 H 79.378 32.608 86.941 H 0.0 **** 0.0
16296 C 76.467 76.905 58.199 C 0.0 **** 0.0
16297 H 76.075 76.259 57.413 H 0.0 **** 0.0
16298 H 75.978 77.878 58.148 H 0.0 **** 0.0
16299 H 77.541 77.03 58.064 H 0.0 **** 0.0
16300 H 76.273 76.451 59.171 H 0.0 **** 0.0
16301 C 45.035 59.765 18.072 C 0.0 **** 0.0
16302 H 44.98 59.831 16.985 H 0.0 **** 0.0
16303 H 45.622 60.599 18.457 H 0.0 **** 0.0
16304 H 45.507 58.825 18.356 H 0.0 **** 0.0
16305 H 44.028 59.807 18.489 H 0.0 **** 0.0
16306 C 3.026 85.448 37.333 C 0.0 **** 0.0
16307 H 3.679 86.276 37.056 H 0.0 **** 0.0
16308 H 3.428 84.948 38.215 H 0.0 **** 0.0
16309 H 2.969 84.739 36.507 H 0.0 **** 0.0
16310 H 2.029 85.83 37.553 H 0.0 **** 0.0
16311 C 8.505 50.85 23.876 C 0.0 **** 0.0
16312 H 8.961 51.259 22.975 H 0.0 **** 0.0
16313 H 8.94 51.329 24.754 H 0.0 **** 0.0
16314 H 8.686 49.776 23.92 H 0.0 **** 0.0
16315 H 7.431 51.036 23.856 H 0.0 **** 0.0
16316 C 54.636 94.13 23.89 C 0.0 **** 0.0
16317 H 55.278 94.411 23.056 H 0.0 **** 0.0
16318 H 55.251 93.894 24.759 H 0.0 **** 0.0
16319 H 54.045 93.256 23.615 H 0.0 **** 0.0
16320 H 53.969 94.958 24.13 H 0.0 **** 0.0
16321 C 62.294 33.763 97.154 C 0.0 **** 0.0
16322 H 62.5 34.702 96.641 H 0.0 **** 0.0
16323 H 61.445 33.269 96.681 H 0.0 **** 0.0
16324 H 62.062 33.964 98.2 H 0.0 **** 0.0
16325 H 63.17 33.117 97.094 H 0.0 **** 0.0
16326 C 20.887 11.301 75.774 C 0.0 **** 0.0
16327 H 20.348 10.993 74.878 H 0.0 **** 0.0
16328 H 20.357 12.125 76.251 H 0.0 **** 0.0
16329 H 21.891 11.625 75.5 H 0.0 **** 0.0
16330 H 20.952 10.461 76.466 H 0.0 **** 0.0
16331 C 14.215 59.024 3.858 C 0.0 **** 0.0
16332 H 13.833 60.045 3.826 H 0.0 **** 0.0
16333 H 13.379 58.324 3.835 H 0.0 **** 0.0
16334 H 14.786 58.879 4.774 H 0.0 **** 0.0
16335 H 14.859 58.85 2.996 H 0.0 **** 0.0
16336 C 84.442 57.594 45.089 C 0.0 **** 0.0
16337 H 83.435 57.206 44.935 H 0.0 **** 0.0
16338 H 84.628 57.71 46.157 H 0.0 **** 0.0
16339 H 84.537 58.562 44.596 H 0.0 **** 0.0
16340 H 85.168 56.899 44.667 H 0.0 **** 0.0
16341 C 3.968 6.718 42.19 C 0.0 **** 0.0
16342 H 3.314 7.365 42.775 H 0.0 **** 0.0
16343 H 4.99 7.093 42.241 H 0.0 **** 0.0
16344 H 3.635 6.708 41.152 H 0.0 **** 0.0
16345 H 3.932 5.705 42.593 H 0.0 **** 0.0
16346 C 37.178 43.269 83.997 C 0.0 **** 0.0
16347 H 36.907 43.798 84.911 H 0.0 **** 0.0
16348 H 37.981 43.806 83.491 H 0.0 **** 0.0
16349 H 36.31 43.21 83.341 H 0.0 **** 0.0
16350 H 37.514 42.263 84.246 H 0.0 **** 0.0
16351 C 48.754 49.082 39.866 C 0.0 **** 0.0
16352 H 48.757 48.017 40.102 H 0.0 **** 0.0
16353 H 49.62 49.32 39.248 H 0.0 **** 0.0
16354 H 48.796 49.658 40.79 H 0.0 **** 0.0
16355 H 47.841 49.33 39.324 H 0.0 **** 0.0
16356 C 59.011 91.973 17.205 C 0.0 **** 0.0
16357 H 59.977 91.584 17.529 H 0.0 **** 0.0
16358 H 58.362 91.144 16.924 H 0.0 **** 0.0
16359 H 59.154 92.63 16.347 H 0.0 **** 0.0
16360 H 58.554 92.534 18.02 H 0.0 **** 0.0
16361 C 60.219 93.16 70.171 C 0.0 **** 0.0
16362 H 60.861 93.675 70.886 H 0.0 **** 0.0
16363 H 59.281 93.706 70.067 H 0.0 **** 0.0
16364 H 60.014 92.151 70.528 H 0.0 **** 0.0
16365 H 60.72 93.11 69.205 H 0.0 **** 0.0
16366 C 3.24 9.087 24.454 C 0.0 **** 0.0
16367 H 4.258 9.044 24.842 H 0.0 **** 0.0
16368 H 3.043 10.085 24.062 H 0.0 **** 0.0
16369 H 2.536 8.866 25.257 H 0.0 **** 0.0
16370 H 3.124 8.353 23.657 H 0.0 **** 0.0
16371 C 45.833 48.446 18.462 C 0.0 **** 0.0
16372 H 44.922 48.742 17.943 H 0.0 **** 0.0
16373 H 46.423 49.333 18.694 H 0.0 **** 0.0
16374 H 46.413 47.779 17.825 H 0.0 **** 0.0
16375 H 45.573 47.93 19.386 H 0.0 **** 0.0
16376 C 62.323 43.93 90.759 C 0.0 **** 0.0
16377 H 62.739 44.305 89.824 H 0.0 **** 0.0
16378 H 62.929 43.098 91.118 H 0.0 **** 0.0
16379 H 61.301 43.59 90.591 H 0.0 **** 0.0
16380 H 62.324 44.727 91.503 H 0.0 **** 0.0
16381 C 93.99 97.119 82.567 C 0.0 **** 0.0
16382 H 93.935 97.262 81.488 H 0.0 **** 0.0
16383 H 94.098 96.057 82.787 H 0.0 **** 0.0
16384 H 93.077 97.496 83.029 H 0.0 **** 0.0
16385 H 94.848 97.662 82.962 H 0.0 **** 0.0
16386 C 10.755 95.036 85.761 C 0.0 **** 0.0
16387 H 10.799 94.407 86.65 H 0.0 **** 0.0
16388 H 11.309 95.958 85.941 H 0.0 **** 0.0
16389 H 9.716 95.274 85.535 H 0.0 **** 0.0
16390 H 11.197 94.505 84.918 H 0.0 **** 0.0
16391 C 50.473 18.268 51.386 C 0.0 **** 0.0
16392 H 50.914 18.813 52.22 H 0.0 **** 0.0
16393 H 49.43 18.564 51.269 H 0.0 **** 0.0
16394 H 50.527 17.197 51.583 H 0.0 **** 0.0
16395 H 51.021 18.498 50.472 H 0.0 **** 0.0
16396 C 58.008 53.381 45.388 C 0.0 **** 0.0
16397 H 58.557 53.012 44.522 H 0.0 **** 0.0
16398 H 57.17 53.993 45.052 H 0.0 **** 0.0
16399 H 58.671 53.983 46.009 H 0.0 **** 0.0
16400 H 57.633 52.537 45.967 H 0.0 **** 0.0
16401 C 92.817 6.896 22.922 C 0.0 **** 0.0
16402 H 92.944 6.889 24.005 H 0.0 **** 0.0
16403 H 92.495 7.887 22.601 H 0.0 **** 0.0
16404 H 92.064 6.16 22.64 H 0.0 **** 0.0
16405 H 93.765 6.648 22.444 H 0.0 **** 0.0
16406 C 93.888 23.067 41.678 C 0.0 **** 0.0
16407 H 94.404 23.382 40.771 H 0.0 **** 0.0
16408 H 94.615 22.915 42.475 H 0.0 **** 0.0
16409 H 93.356 22.135 41.488 H 0.0 **** 0.0
16410 H 93.176 23.837 41.977 H 0.0 **** 0.0
16411 C 85.61 10.97 58.805 C 0.0 **** 0.0
16412 H 85.658 10.705 59.861 H 0.0 **** 0.0
16413 H 84.78 11.657 58.64 H 0.0 **** 0.0
16414 H 85.46 10.068 58.211 H 0.0 **** 0.0
16415 H 86.543 11.45 58.508 H 0.0 **** 0.0
16416 C 33.295 68.867 69.365 C 0.0 **** 0.0
16417 H 32.281 69.196 69.592 H 0.0 **** 0.0
16418 H 33.734 69.532 68.62 H 0.0 **** 0.0
16419 H 33.268 67.85 68.974 H 0.0 **** 0.0
16420 H 33.896 68.891 70.274 H 0.0 **** 0.0
16421 C 42.893 6.589 63.563 C 0.0 **** 0.0
16422 H 41.808 6.638 63.468 H 0.0 **** 0.0
16423 H 43.274 7.562 63.874 H 0.0 **** 0.0
16424 H 43.33 6.318 62.602 H 0.0 **** 0.0
16425 H 43.159 5.839 64.308 H 0.0 **** 0.0
16426 C 41.009 85.816 95.592 C 0.0 **** 0.0
16427 H 40.493 84.858 95.658 H 0.0 **** 0.0
16428 H 40.288 86.626 95.709 H 0.0 **** 0.0
16429 H 41.496 85.899 94.62 H 0.0 **** 0.0
16430 H 41.759 85.879 96.381 H 0.0 **** 0.0
16431 C 42.973 35.663 1.427 C 0.0 **** 0.0
16432 H 42.436 35.719 2.373 H 0.0 **** 0.0
16433 H 43.469 36.614 1.233 H 0.0 **** 0.0
16434 H 42.269 35.449 0.622 H 0.0 **** 0.0
16435 H 43.717 34.868 1.479 H 0.0 **** 0.0
16436 C 85.251 19.28 32.94 C 0.0 **** 0.0
16437 H 84.845 18.279 33.084 H 0.0 **** 0.0
16438 H 84.828 19.954 33.684 H 0.0 **** 0.0
16439 H 84.997 19.634 31.941 H 0.0 **** 0.0
16440 H 86.335 19.251 33.05 H 0.0 **** 0.0
16441 C 91.833 5.634 89.594 C 0.0 **** 0.0
16442 H 91.304 4.687 89.699 H 0.0 **** 0.0
16443 H 92.907 5.458 89.653 H 0.0 **** 0.0
16444 H 91.53 6.31 90.393 H 0.0 **** 0.0
16445 H 91.591 6.08 88.629 H 0.0 **** 0.0
16446 C 29.624 45.034 11.217 C 0.0 **** 0.0
16447 H 29.797 46.103 11.341 H 0.0 **** 0.0
16448 H 29.106 44.857 10.274 H 0.0 **** 0.0
16449 H 29.013 44.667 12.042 H 0.0 **** 0.0
16450 H 30.58 44.51 11.211 H 0.0 **** 0.0
16451 C 59.601 76.275 50.925 C 0.0 **** 0.0
16452 H 60.234 76.507 51.782 H 0.0 **** 0.0
16453 H 58.656 75.859 51.275 H 0.0 **** 0.0
16454 H 60.104 75.549 50.287 H 0.0 **** 0.0
16455 H 59.41 77.186 50.358 H 0.0 **** 0.0
16456 C 22.719 33.209 15.026 C 0.0 **** 0.0
16457 H 23.487 33.011 14.279 H 0.0 **** 0.0
16458 H 22.84 34.222 15.411 H 0.0 **** 0.0
16459 H 22.814 32.495 15.844 H 0.0 **** 0.0
16460 H 21.734 33.109 14.569 H 0.0 **** 0.0
16461 C 47.245 51.267 76.11 C 0.0 **** 0.0
16462 H 47.309 51.238 75.022 H 0.0 **** 0.0
16463 H 46.882 52.245 76.426 H 0.0 **** 0.0
16464 H 48.233 51.091 76.536 H 0.0 **** 0.0
16465 H 46.557 50.495 76.454 H 0.0 **** 0.0
16466 C 20.094 33.864 77.085 C 0.0 **** 0.0
16467 H 20.609 33.679 78.028 H 0.0 **** 0.0
16468 H 20.808 33.804 76.263 H 0.0 **** 0.0
16469 H 19.645 34.857 77.105 H 0.0 **** 0.0
16470 H 19.314 33.116 76.945 H 0.0 **** 0.0
16471 C 63.399 50.518 94.067 C 0.0 **** 0.0
16472 H 63.789 51.527 94.198 H 0.0 **** 0.0
16473 H 64.193 49.866 93.704 H 0.0 **** 0.0
16474 H 62.584 50.535 93.344 H 0.0 **** 0.0
16475 H 63.03 50.145 95.022 H 0.0 **** 0.0
16476 C 41.894 83.774 4.799 C 0.0 **** 0.0
16477 H 41.524 84.278 5.692 H 0.0 **** 0.0
16478 H 41.871 82.695 4.956 H 0.0 **** 0.0
16479 H 42.918 84.091 4.601 H 0.0 **** 0.0
16480 H 41.263 84.032 3.949 H 0.0 **** 0.0
16481 C 82.087 25.302 48.088 C 0.0 **** 0.0
16482 H 81.316 25.267 47.32 H 0.0 **** 0.0
16483 H 82.636 26.241 48.01 H 0.0 **** 0.0
16484 H 82.774 24.467 47.951 H 0.0 **** 0.0
16485 H 81.623 25.233 49.072 H 0.0 **** 0.0
16486 C 65.317 38.182 74.263 C 0.0 **** 0.0
16487 H 65.048 38.253 75.317 H 0.0 **** 0.0
16488 H 65.393 37.133 73.978 H 0.0 **** 0.0
16489 H 66.275 38.674 74.099 H 0.0 **** 0.0
16490 H 64.55 38.668 73.659 H 0.0 **** 0.0
16491 C 98.046 73.573 58.756 C 0.0 **** 0.0
16492 H 97.486 74.196 58.059 H 0.0 **** 0.0
16493 H 97.473 72.673 58.98 H 0.0 **** 0.0
16494 H 98.225 74.129 59.677 H 0.0 **** 0.0
16495 H 99.0 73.295 58.308 H 0.0 **** 0.0
16496 C 47.937 48.964 28.336 C 0.0 **** 0.0
16497 H 48.604 48.293 28.877 H 0.0 **** 0.0
16498 H 48.305 49.1 27.319 H 0.0 **** 0.0
16499 H 47.903 49.928 28.843 H 0.0 **** 0.0
16500 H 46.936 48.534 28.306 H 0.0 **** 0.0
16501 C 67.314 95.356 4.025 C 0.0 **** 0.0
16502 H 66.732 94.503 4.374 H 0.0 **** 0.0
16503 H 66.646 96.096 3.584 H 0.0 **** 0.0
16504 H 68.033 95.023 3.276 H 0.0 **** 0.0
16505 H 67.846 95.801 4.866 H 0.0 **** 0.0
16506 C 87.303 72.375 94.176 C 0.0 **** 0.0
16507 H 86.391 72.239 94.758 H 0.0 **** 0.0
16508 H 88.152 72.48 94.852 H 0.0 **** 0.0
16509 H 87.212 73.273 93.565 H 0.0 **** 0.0
16510 H 87.456 71.51 93.531 H 0.0 **** 0.0
16511 C 78.162 69.562 1.953 C 0.0 **** 0.0
16512 H 77.681 70.384 2.483 H 0.0 **** 0.0
16513 H 78.655 68.906 2.67 H 0.0 **** 0.0
16514 H 78.9 69.961 1.257 H 0.0 **** 0.0
16515 H 77.41 68.998 1.4 H 0.0 **** 0.0
16516 C 63.341 66.164 27.671 C 0.0 **** 0.0
16517 H 63.139 65.19 28.118 H 0.0 **** 0.0
16518 H 62.401 66.691 27.509 H 0.0 **** 0.0
16519 H 63.85 66.026 26.717 H 0.0 **** 0.0
16520 H 63.975 66.746 28.34 H 0.0 **** 0.0
16521 C 83.484 16.842 28.187 C 0.0 **** 0.0
16522 H 84.006 15.903 28.371 H 0.0 **** 0.0
16523 H 83.356 17.377 29.128 H 0.0 **** 0.0
16524 H 82.506 16.634 27.751 H 0.0 **** 0.0
16525 H 84.067 17.452 27.498 H 0.0 **** 0.0
16526 C 8.155 18.722 7.467 C 0.0 **** 0.0
16527 H 8.609 18.266 6.588 H 0.0 **** 0.0
16528 H 7.246 19.247 7.175 H 0.0 **** 0.0
16529 H 8.856 19.428 7.913 H 0.0 **** 0.0
16530 H 7.91 17.946 8.192 H 0.0 **** 0.0
16531 C 79.41 73.673 1.068 C 0.0 **** 0.0
16532 H 79.482 73.982 0.026 H 0.0 **** 0.0
16533 H 78.389 73.824 1.421 H 0.0 **** 0.0
16534 H 80.095 74.269 1.672 H 0.0 **** 0.0
16535 H 79.672 72.619 1.155 H 0.0 **** 0.0
16536 C 14.522 6.46 32.121 C 0.0 **** 0.0
16537 H 14.521 6.364 31.036 H 0.0 **** 0.0
16538 H 15.539 6.651 32.467 H 0.0 **** 0.0
16539 H 14.154 5.536 32.568 H 0.0 **** 0.0
16540 H 13.877 7.287 32.414 H 0.0 **** 0.0
16541 C 36.684 57.708 31.111 C 0.0 **** 0.0
16542 H 36.561 58.774 31.304 H 0.0 **** 0.0
16543 H 37.729 57.432 31.251 H 0.0 **** 0.0
16544 H 36.384 57.487 30.087 H 0.0 **** 0.0
16545 H 36.062 57.14 31.803 H 0.0 **** 0.0
16546 C 97.062 68.909 68.562 C 0.0 **** 0.0
16547 H 96.448 68.82 67.666 H 0.0 **** 0.0
16548 H 97.782 69.717 68.431 H 0.0 **** 0.0
16549 H 97.593 67.972 68.732 H 0.0 **** 0.0
16550 H 96.424 69.125 69.419 H 0.0 **** 0.0
16551 C 3.342 4.307 39.846 C 0.0 **** 0.0
16552 H 2.852 3.375 40.128 H 0.0 **** 0.0
16553 H 2.592 5.088 39.724 H 0.0 **** 0.0
16554 H 3.878 4.166 38.908 H 0.0 **** 0.0
16555 H 4.046 4.596 40.627 H 0.0 **** 0.0
16556 C 94.029 26.961 85.678 C 0.0 **** 0.0
16557 H 93.545 26.075 85.268 H 0.0 **** 0.0
16558 H 93.865 26.999 86.755 H 0.0 **** 0.0
16559 H 93.607 27.853 85.214 H 0.0 **** 0.0
16560 H 95.099 26.917 85.474 H 0.0 **** 0.0
16561 C 4.884 31.647 48.951 C 0.0 **** 0.0
16562 H 5.234 32.471 48.329 H 0.0 **** 0.0
16563 H 4.063 31.991 49.581 H 0.0 **** 0.0
16564 H 5.701 31.294 49.579 H 0.0 **** 0.0
16565 H 4.538 30.834 48.314 H 0.0 **** 0.0
16566 C 75.618 79.571 1.747 C 0.0 **** 0.0
16567 H 74.914 79.824 0.955 H 0.0 **** 0.0
16568 H 76.477 79.054 1.319 H 0.0 **** 0.0
16569 H 75.129 78.923 2.474 H 0.0 **** 0.0
16570 H 75.952 80.484 2.241 H 0.0 **** 0.0
16571 C 35.803 37.803 70.754 C 0.0 **** 0.0
16572 H 35.71 37.048 71.535 H 0.0 **** 0.0
16573 H 35.015 37.659 70.015 H 0.0 **** 0.0
16574 H 36.776 37.708 70.272 H 0.0 **** 0.0
16575 H 35.711 38.795 71.196 H 0.0 **** 0.0
16576 C 5.483 55.815 75.681 C 0.0 **** 0.0
16577 H 6.233 55.855 74.892 H 0.0 **** 0.0
16578 H 5.412 56.789 76.165 H 0.0 **** 0.0
16579 H 5.769 55.063 76.416 H 0.0 **** 0.0
16580 H 4.516 55.553 75.25 H 0.0 **** 0.0
16581 C 39.444 76.561 64.326 C 0.0 **** 0.0
16582 H 39.367 75.689 63.677 H 0.0 **** 0.0
16583 H 39.935 77.372 63.788 H 0.0 **** 0.0
16584 H 40.029 76.305 65.21 H 0.0 **** 0.0
16585 H 38.446 76.877 64.63 H 0.0 **** 0.0
16586 C 21.796 47.517 6.069 C 0.0 **** 0.0
16587 H 21.089 47.597 6.895 H 0.0 **** 0.0
16588 H 21.878 48.48 5.566 H 0.0 **** 0.0
16589 H 21.445 46.765 5.362 H 0.0 **** 0.0
16590 H 22.773 47.224 6.456 H 0.0 **** 0.0
16591 C 45.844 72.791 85.88 C 0.0 **** 0.0
16592 H 45.698 72.984 84.818 H 0.0 **** 0.0
16593 H 46.777 73.248 86.208 H 0.0 **** 0.0
16594 H 45.886 71.715 86.051 H 0.0 **** 0.0
16595 H 45.013 73.216 86.444 H 0.0 **** 0.0
16596 C 58.54 76.372 16.894 C 0.0 **** 0.0
16597 H 58.487 75.701 16.037 H 0.0 **** 0.0
16598 H 57.537 76.709 17.154 H 0.0 **** 0.0
16599 H 59.159 77.233 16.643 H 0.0 **** 0.0
16600 H 58.978 75.845 17.741 H 0.0 **** 0.0
16601 C 41.981 89.113 97.218 C 0.0 **** 0.0
16602 H 42.388 88.52 96.4 H 0.0 **** 0.0
16603 H 42.017 90.17 96.953 H 0.0 **** 0.0
16604 H 42.571 88.944 98.119 H 0.0 **** 0.0
16605 H 40.947 88.819 97.4 H 0.0 **** 0.0
16606 C 7.615 89.256 11.161 C 0.0 **** 0.0
16607 H 7.67 89.418 10.084 H 0.0 **** 0.0
16608 H 6.84 88.52 11.378 H 0.0 **** 0.0
16609 H 7.373 90.196 11.657 H 0.0 **** 0.0
16610 H 8.575 88.891 11.523 H 0.0 **** 0.0
16611 C 61.846 94.319 34.214 C 0.0 **** 0.0
16612 H 61.579 93.463 33.594 H 0.0 **** 0.0
16613 H 61.018 95.028 34.229 H 0.0 **** 0.0
16614 H 62.732 94.803 33.803 H 0.0 **** 0.0
16615 H 62.054 93.981 35.229 H 0.0 **** 0.0
16616 C 74.931 87.275 13.019 C 0.0 **** 0.0
16617 H 75.789 87.946 13.037 H 0.0 **** 0.0
16618 H 75.271 86.246 13.145 H 0.0 **** 0.0
16619 H 74.413 87.372 12.064 H 0.0 **** 0.0
16620 H 74.25 87.535 13.829 H 0.0 **** 0.0
16621 C 87.289 20.659 26.991 C 0.0 **** 0.0
16622 H 87.61 21.002 26.008 H 0.0 **** 0.0
16623 H 86.246 20.934 27.149 H 0.0 **** 0.0
16624 H 87.908 21.124 27.759 H 0.0 **** 0.0
16625 H 87.392 19.575 27.049 H 0.0 **** 0.0
16626 C 55.777 93.545 64.49 C 0.0 **** 0.0
16627 H 56.205 94.245 65.207 H 0.0 **** 0.0
16628 H 54.823 93.932 64.13 H 0.0 **** 0.0
16629 H 55.619 92.581 64.974 H 0.0 **** 0.0
16630 H 56.46 93.422 63.65 H 0.0 **** 0.0
16631 C 61.354 84.87 70.1 C 0.0 **** 0.0
16632 H 60.875 84.805 69.123 H 0.0 **** 0.0
16633 H 60.607 84.732 70.881 H 0.0 **** 0.0
16634 H 61.82 85.85 70.211 H 0.0 **** 0.0
16635 H 62.116 84.095 70.184 H 0.0 **** 0.0
16636 C 56.272 58.569 32.847 C 0.0 **** 0.0
16637 H 57.295 58.929 32.959 H 0.0 **** 0.0
16638 H 56.093 57.758 33.554 H 0.0 **** 0.0
16639 H 56.125 58.205 31.831 H 0.0 **** 0.0
16640 H 55.576 59.384 33.046 H 0.0 **** 0.0
16641 C 56.588 48.978 64.747 C 0.0 **** 0.0
16642 H 57.39 49.681 64.976 H 0.0 **** 0.0
16643 H 55.627 49.486 64.826 H 0.0 **** 0.0
16644 H 56.621 48.148 65.453 H 0.0 **** 0.0
16645 H 56.717 48.598 63.734 H 0.0 **** 0.0
16646 C 3.725 6.725 52.372 C 0.0 **** 0.0
16647 H 3.428 6.812 51.327 H 0.0 **** 0.0
16648 H 2.836 6.701 53.002 H 0.0 **** 0.0
16649 H 4.342 7.582 52.646 H 0.0 **** 0.0
16650 H 4.296 5.807 52.512 H 0.0 **** 0.0
16651 C 80.292 91.043 30.462 C 0.0 **** 0.0
16652 H 79.447 91.458 29.914 H 0.0 **** 0.0
16653 H 81.222 91.415 30.031 H 0.0 **** 0.0
16654 H 80.27 89.956 30.395 H 0.0 **** 0.0
16655 H 80.23 91.344 31.508 H 0.0 **** 0.0
16656 C 61.831 68.293 32.695 C 0.0 **** 0.0
16657 H 60.758 68.474 32.762 H 0.0 **** 0.0
16658 H 62.045 67.266 32.99 H 0.0 **** 0.0
16659 H 62.356 68.98 33.358 H 0.0 **** 0.0
16660 H 62.162 68.453 31.669 H 0.0 **** 0.0
16661 C 23.788 75.152 35.524 C 0.0 **** 0.0
16662 H 23.801 75.847 34.684 H 0.0 **** 0.0
16663 H 22.915 74.504 35.445 H 0.0 **** 0.0
16664 H 23.742 75.713 36.458 H 0.0 **** 0.0
16665 H 24.694 74.547 35.508 H 0.0 **** 0.0
16666 C 79.685 89.643 55.536 C 0.0 **** 0.0
16667 H 78.929 88.892 55.31 H 0.0 **** 0.0
16668 H 80.541 89.507 54.874 H 0.0 **** 0.0
16669 H 80.006 89.536 56.572 H 0.0 **** 0.0
16670 H 79.264 90.638 55.386 H 0.0 **** 0.0
16671 C 85.627 43.728 44.031 C 0.0 **** 0.0
16672 H 85.634 43.691 42.941 H 0.0 **** 0.0
16673 H 86.311 42.974 44.424 H 0.0 **** 0.0
16674 H 84.619 43.529 44.394 H 0.0 **** 0.0
16675 H 85.945 44.716 44.363 H 0.0 **** 0.0
16676 C 75.771 85.911 67.696 C 0.0 **** 0.0
16677 H 76.242 84.952 67.483 H 0.0 **** 0.0
16678 H 75.314 85.88 68.685 H 0.0 **** 0.0
16679 H 75.004 86.113 66.948 H 0.0 **** 0.0
16680 H 76.523 86.7 67.667 H 0.0 **** 0.0
16681 C 95.281 13.105 64.045 C 0.0 **** 0.0
16682 H 95.577 12.719 65.02 H 0.0 **** 0.0
16683 H 94.206 12.976 63.914 H 0.0 **** 0.0
16684 H 95.811 12.561 63.263 H 0.0 **** 0.0
16685 H 95.53 14.165 63.983 H 0.0 **** 0.0
16686 C 16.674 52.529 28.649 C 0.0 **** 0.0
16687 H 16.639 53.618 28.611 H 0.0 **** 0.0
16688 H 17.427 52.165 27.95 H 0.0 **** 0.0
16689 H 15.699 52.125 28.375 H 0.0 **** 0.0
16690 H 16.929 52.208 29.658 H 0.0 **** 0.0
16691 C 74.755 77.183 16.262 C 0.0 **** 0.0
16692 H 75.307 76.495 15.622 H 0.0 **** 0.0
16693 H 73.685 77.067 16.082 H 0.0 **** 0.0
16694 H 75.052 78.207 16.036 H 0.0 **** 0.0
16695 H 74.974 76.963 17.306 H 0.0 **** 0.0
16696 C 15.809 64.573 94.121 C 0.0 **** 0.0
16697 H 16.3 63.697 94.545 H 0.0 **** 0.0
16698 H 15.059 64.942 94.821 H 0.0 **** 0.0
16699 H 15.326 64.3 93.182 H 0.0 **** 0.0
16700 H 16.549 65.351 93.937 H 0.0 **** 0.0
16701 C 75.854 8.552 96.685 C 0.0 **** 0.0
16702 H 76.677 7.838 96.655 H 0.0 **** 0.0
16703 H 76.249 9.565 96.603 H 0.0 **** 0.0
16704 H 75.316 8.447 97.627 H 0.0 **** 0.0
16705 H 75.174 8.359 95.855 H 0.0 **** 0.0
16706 C 91.636 25.223 11.271 C 0.0 **** 0.0
16707 H 92.509 24.936 10.684 H 0.0 **** 0.0
16708 H 91.858 25.104 12.332 H 0.0 **** 0.0
16709 H 90.793 24.587 11.003 H 0.0 **** 0.0
16710 H 91.387 26.264 11.066 H 0.0 **** 0.0
16711 C 89.415 4.102 36.447 C 0.0 **** 0.0
16712 H 89.104 4.447 37.433 H 0.0 **** 0.0
16713 H 90.484 4.277 36.322 H 0.0 **** 0.0
16714 H 88.865 4.647 35.681 H 0.0 **** 0.0
16715 H 89.208 3.036 36.354 H 0.0 **** 0.0
16716 C 85.738 84.492 83.587 C 0.0 **** 0.0
16717 H 85.825 84.432 82.502 H 0.0 **** 0.0
16718 H 86.729 84.618 84.024 H 0.0 **** 0.0
16719 H 85.287 83.575 83.966 H 0.0 **** 0.0
16720 H 85.112 85.343 83.855 H 0.0 **** 0.0
16721 C 76.814 38.719 83.125 C 0.0 **** 0.0
16722 H 76.772 38.41 84.17 H 0.0 **** 0.0
16723 H 77.006 37.849 82.497 H 0.0 **** 0.0
16724 H 77.613 39.448 82.993 H 0.0 **** 0.0
16725 H 75.862 39.169 82.842 H 0.0 **** 0.0
16726 C 19.16 50.802 74.702 C 0.0 **** 0.0
16727 H 18.631 50.893 75.65 H 0.0 **** 0.0
16728 H 18.485 50.397 73.947 H 0.0 **** 0.0
16729 H 20.012 50.134 74.824 H 0.0 **** 0.0
16730 H 19.51 51.785 74.386 H 0.0 **** 0.0
16731 C 55.287 15.55 36.524 C 0.0 **** 0.0
16732 H 54.761 15.402 35.581 H 0.0 **** 0.0
16733 H 56.115 16.243 36.373 H 0.0 **** 0.0
16734 H 55.672 14.594 36.879 H 0.0 **** 0.0
16735 H 54.598 15.961 37.263 H 0.0 **** 0.0
16736 C 82.131 38.277 6.248 C 0.0 **** 0.0
16737 H 81.641 37.981 5.321 H 0.0 **** 0.0
16738 H 82.808 39.109 6.051 H 0.0 **** 0.0
16739 H 82.697 37.435 6.646 H 0.0 **** 0.0
16740 H 81.379 38.585 6.975 H 0.0 **** 0.0
16741 C 21.098 48.31 21.176 C 0.0 **** 0.0
16742 H 21.425 47.717 22.03 H 0.0 **** 0.0
16743 H 20.056 48.601 21.314 H 0.0 **** 0.0
16744 H 21.193 47.719 20.266 H 0.0 **** 0.0
16745 H 21.717 49.203 21.096 H 0.0 **** 0.0
16746 C 53.78 21.386 33.026 C 0.0 **** 0.0
16747 H 53.129 21.134 33.863 H 0.0 **** 0.0
16748 H 53.481 20.811 32.149 H 0.0 **** 0.0
16749 H 54.812 21.148 33.283 H 0.0 **** 0.0
16750 H 53.696 22.451 32.808 H 0.0 **** 0.0
16751 C 10.441 75.302 86.771 C 0.0 **** 0.0
16752 H 10.151 74.448 86.16 H 0.0 **** 0.0
16753 H 9.672 75.49 87.521 H 0.0 **** 0.0
16754 H 10.552 76.182 86.136 H 0.0 **** 0.0
16755 H 11.388 75.09 87.266 H 0.0 **** 0.0
16756 C 66.703 42.356 47.911 C 0.0 **** 0.0
16757 H 65.934 43.053 47.58 H 0.0 **** 0.0
16758 H 67.684 42.819 47.802 H 0.0 **** 0.0
16759 H 66.659 41.452 47.304 H 0.0 **** 0.0
16760 H 66.536 42.1 48.957 H 0.0 **** 0.0
16761 C 57.313 23.818 74.849 C 0.0 **** 0.0
16762 H 56.271 24.104 74.991 H 0.0 **** 0.0
16763 H 57.855 24.643 74.386 H 0.0 **** 0.0
16764 H 57.364 22.941 74.204 H 0.0 **** 0.0
16765 H 57.761 23.586 75.816 H 0.0 **** 0.0
16766 C 3.858 81.119 78.941 C 0.0 **** 0.0
16767 H 4.576 81.569 79.626 H 0.0 **** 0.0
16768 H 3.296 80.343 79.462 H 0.0 **** 0.0
16769 H 4.389 80.679 78.097 H 0.0 **** 0.0
16770 H 3.171 81.884 78.58 H 0.0 **** 0.0
16771 C 81.309 81.175 93.482 C 0.0 **** 0.0
16772 H 81.507 81.521 94.496 H 0.0 **** 0.0
16773 H 80.818 80.203 93.519 H 0.0 **** 0.0
16774 H 82.25 81.086 92.938 H 0.0 **** 0.0
16775 H 80.663 81.891 92.974 H 0.0 **** 0.0
16776 C 80.516 73.446 82.481 C 0.0 **** 0.0
16777 H 81.101 74.336 82.252 H 0.0 **** 0.0
16778 H 80.654 73.181 83.529 H 0.0 **** 0.0
16779 H 80.848 72.621 81.851 H 0.0 **** 0.0
16780 H 79.461 73.645 82.292 H 0.0 **** 0.0
16781 C 13.534 38.359 75.132 C 0.0 **** 0.0
16782 H 13.257 39.375 74.853 H 0.0 **** 0.0
16783 H 14.621 38.265 75.129 H 0.0 **** 0.0
16784 H 13.107 37.656 74.417 H 0.0 **** 0.0
16785 H 13.153 38.139 76.13 H 0.0 **** 0.0
16786 C 16.546 68.778 72.46 C 0.0 **** 0.0
16787 H 15.617 68.774 73.03 H 0.0 **** 0.0
16788 H 16.597 67.881 71.842 H 0.0 **** 0.0
16789 H 17.393 68.796 73.146 H 0.0 **** 0.0
16790 H 16.576 69.662 71.822 H 0.0 **** 0.0
16791 C 90.476 76.581 85.012 C 0.0 **** 0.0
16792 H 91.026 76.742 85.939 H 0.0 **** 0.0
16793 H 90.6 77.447 84.362 H 0.0 **** 0.0
16794 H 89.418 76.443 85.237 H 0.0 **** 0.0
16795 H 90.86 75.692 84.512 H 0.0 **** 0.0
16796 C 73.797 85.808 64.561 C 0.0 **** 0.0
16797 H 73.393 84.796 64.527 H 0.0 **** 0.0
16798 H 73.357 86.346 65.402 H 0.0 **** 0.0
16799 H 73.557 86.326 63.632 H 0.0 **** 0.0
16800 H 74.879 85.764 64.683 H 0.0 **** 0.0
16801 C 7.965 94.395 51.751 C 0.0 **** 0.0
16802 H 8.671 95.193 51.519 H 0.0 **** 0.0
16803 H 7.402 94.137 50.854 H 0.0 **** 0.0
16804 H 7.279 94.733 52.527 H 0.0 **** 0.0
16805 H 8.51 93.519 52.103 H 0.0 **** 0.0
16806 C 51.953 63.453 72.383 C 0.0 **** 0.0
16807 H 51.34 63.944 71.627 H 0.0 **** 0.0
16808 H 53.004 63.524 72.1 H 0.0 **** 0.0
16809 H 51.667 62.404 72.458 H 0.0 **** 0.0
16810 H 51.802 63.941 73.345 H 0.0 **** 0.0
16811 C 20.276 34.782 88.231 C 0.0 **** 0.0
16812 H 19.655 34.855 89.124 H 0.0 **** 0.0
16813 H 20.482 33.734 88.017 H 0.0 **** 0.0
16814 H 21.214 35.311 88.397 H 0.0 **** 0.0
16815 H 19.751 35.23 87.387 H 0.0 **** 0.0
16816 C 91.447 86.621 80.753 C 0.0 **** 0.0
16817 H 91.822 86.997 79.801 H 0.0 **** 0.0
16818 H 91.214 87.46 81.408 H 0.0 **** 0.0
16819 H 92.207 85.995 81.22 H 0.0 **** 0.0
16820 H 90.546 86.032 80.581 H 0.0 **** 0.0
16821 C 31.809 44.465 52.342 C 0.0 **** 0.0
16822 H 31.159 44.666 51.49 H 0.0 **** 0.0
16823 H 32.722 45.053 52.247 H 0.0 **** 0.0
16824 H 32.059 43.405 52.365 H 0.0 **** 0.0
16825 H 31.294 44.738 53.263 H 0.0 **** 0.0
16826 C 71.485 90.661 63.879 C 0.0 **** 0.0
16827 H 71.469 90.66 62.789 H 0.0 **** 0.0
16828 H 70.483 90.863 64.257 H 0.0 **** 0.0
16829 H 72.169 91.434 64.231 H 0.0 **** 0.0
16830 H 71.821 89.688 64.238 H 0.0 **** 0.0
16831 C 32.451 41.87 56.283 C 0.0 **** 0.0
16832 H 33.09 41.302 55.607 H 0.0 **** 0.0
16833 H 32.728 41.652 57.315 H 0.0 **** 0.0
16834 H 31.41 41.59 56.119 H 0.0 **** 0.0
16835 H 32.575 42.936 56.09 H 0.0 **** 0.0
16836 C 8.356 69.554 41.018 C 0.0 **** 0.0
16837 H 8.219 69.473 42.096 H 0.0 **** 0.0
16838 H 7.383 69.562 40.528 H 0.0 **** 0.0
16839 H 8.936 68.703 40.662 H 0.0 **** 0.0
16840 H 8.887 70.478 40.788 H 0.0 **** 0.0
16841 C 62.566 6.119 34.557 C 0.0 **** 0.0
16842 H 62.809 6.054 35.618 H 0.0 **** 0.0
16843 H 63.425 5.795 33.968 H 0.0 **** 0.0
16844 H 62.32 7.15 34.304 H 0.0 **** 0.0
16845 H 61.713 5.477 34.339 H 0.0 **** 0.0
16846 C 37.934 74.27 90.719 C 0.0 **** 0.0
16847 H 37.697 74.621 89.715 H 0.0 **** 0.0
16848 H 37.87 73.182 90.747 H 0.0 **** 0.0
16849 H 37.224 74.694 91.429 H 0.0 **** 0.0
16850 H 38.944 74.582 90.985 H 0.0 **** 0.0
16851 C 48.641 62.486 37.023 C 0.0 **** 0.0
16852 H 49.652 62.338 37.403 H 0.0 **** 0.0
16853 H 48.622 62.276 35.953 H 0.0 **** 0.0
16854 H 48.335 63.517 37.196 H 0.0 **** 0.0
16855 H 47.957 61.812 37.538 H 0.0 **** 0.0
16856 C 60.591 42.282 50.921 C 0.0 **** 0.0
16857 H 60.471 42.422 49.846 H 0.0 **** 0.0
16858 H 61.628 42.472 51.197 H 0.0 **** 0.0
16859 H 60.325 41.259 51.186 H 0.0 **** 0.0
16860 H 59.94 42.976 51.452 H 0.0 **** 0.0
16861 C 15.222 92.787 96.506 C 0.0 **** 0.0
16862 H 15.541 92.823 95.465 H 0.0 **** 0.0
16863 H 15.992 92.302 97.106 H 0.0 **** 0.0
16864 H 14.293 92.223 96.582 H 0.0 **** 0.0
16865 H 15.062 93.802 96.872 H 0.0 **** 0.0
16866 C 54.536 81.167 68.654 C 0.0 **** 0.0
16867 H 54.626 81.558 67.641 H 0.0 **** 0.0
16868 H 55.096 80.235 68.734 H 0.0 **** 0.0
16869 H 53.486 80.982 68.88 H 0.0 **** 0.0
16870 H 54.937 81.894 69.361 H 0.0 **** 0.0
16871 C 1.965 31.699 47.321 C 0.0 **** 0.0
16872 H 2.08 31.911 48.384 H 0.0 **** 0.0
16873 H 0.918 31.481 47.106 H 0.0 **** 0.0
16874 H 2.577 30.838 47.053 H 0.0 **** 0.0
16875 H 2.282 32.565 46.741 H 0.0 **** 0.0
16876 C 18.714 98.015 83.545 C 0.0 **** 0.0
16877 H 19.031 99.004 83.217 H 0.0 **** 0.0
16878 H 17.646 98.03 83.768 H 0.0 **** 0.0
16879 H 19.268 97.734 84.441 H 0.0 **** 0.0
16880 H 18.91 97.29 82.755 H 0.0 **** 0.0
16881 C 92.773 29.233 45.333 C 0.0 **** 0.0
16882 H 93.579 29.697 44.764 H 0.0 **** 0.0
16883 H 92.762 29.64 46.344 H 0.0 **** 0.0
16884 H 92.932 28.156 45.375 H 0.0 **** 0.0
16885 H 91.82 29.441 44.847 H 0.0 **** 0.0
16886 C 62.816 8.109 56.638 C 0.0 **** 0.0
16887 H 61.837 8.588 56.665 H 0.0 **** 0.0
16888 H 62.712 7.055 56.895 H 0.0 **** 0.0
16889 H 63.478 8.595 57.355 H 0.0 **** 0.0
16890 H 63.237 8.2 55.636 H 0.0 **** 0.0
16891 C 71.465 7.939 58.423 C 0.0 **** 0.0
16892 H 71.807 7.947 57.389 H 0.0 **** 0.0
16893 H 70.547 8.521 58.507 H 0.0 **** 0.0
16894 H 72.232 8.377 59.063 H 0.0 **** 0.0
16895 H 71.274 6.912 58.735 H 0.0 **** 0.0
16896 C 39.709 82.72 15.708 C 0.0 **** 0.0
16897 H 39.569 82.587 14.635 H 0.0 **** 0.0
16898 H 38.979 83.439 16.082 H 0.0 **** 0.0
16899 H 40.716 83.09 15.9 H 0.0 **** 0.0
16900 H 39.57 81.764 16.213 H 0.0 **** 0.0
16901 C 13.293 91.594 63.937 C 0.0 **** 0.0
16902 H 13.199 91.715 62.858 H 0.0 **** 0.0
16903 H 13.919 92.391 64.339 H 0.0 **** 0.0
16904 H 13.749 90.628 64.156 H 0.0 **** 0.0
16905 H 12.306 91.641 64.396 H 0.0 **** 0.0
16906 C 71.566 68.293 21.231 C 0.0 **** 0.0
16907 H 70.992 67.703 21.945 H 0.0 **** 0.0
16908 H 72.253 68.946 21.768 H 0.0 **** 0.0
16909 H 70.886 68.896 20.629 H 0.0 **** 0.0
16910 H 72.132 67.626 20.581 H 0.0 **** 0.0
16911 C 93.461 43.151 86.964 C 0.0 **** 0.0
16912 H 93.182 42.291 86.355 H 0.0 **** 0.0
16913 H 93.384 44.06 86.366 H 0.0 **** 0.0
16914 H 94.486 43.031 87.314 H 0.0 **** 0.0
16915 H 92.791 43.222 87.821 H 0.0 **** 0.0
16916 C 75.915 88.091 49.564 C 0.0 **** 0.0
16917 H 75.912 88.557 50.549 H 0.0 **** 0.0
16918 H 76.358 88.775 48.839 H 0.0 **** 0.0
16919 H 74.891 87.861 49.268 H 0.0 **** 0.0
16920 H 76.498 87.171 49.599 H 0.0 **** 0.0
16921 C 82.898 15.131 14.444 C 0.0 **** 0.0
16922 H 83.234 15.39 15.448 H 0.0 **** 0.0
16923 H 83.753 15.113 13.768 H 0.0 **** 0.0
16924 H 82.177 15.872 14.1 H 0.0 **** 0.0
16925 H 82.427 14.147 14.462 H 0.0 **** 0.0
16926 C 72.855 28.54 47.732 C 0.0 **** 0.0
16927 H 73.694 28.894 47.133 H 0.0 **** 0.0
16928 H 72.196 29.376 47.963 H 0.0 **** 0.0
16929 H 73.23 28.105 48.659 H 0.0 **** 0.0
16930 H 72.303 27.784 47.173 H 0.0 **** 0.0
16931 C 95.211 64.508 97.284 C 0.0 **** 0.0
16932 H 95.535 65.095 96.425 H 0.0 **** 0.0
16933 H 94.136 64.338 97.223 H 0.0 **** 0.0
16934 H 95.443 65.048 98.202 H 0.0 **** 0.0
16935 H 95.731 63.55 97.285 H 0.0 **** 0.0
16936 C 41.93 14.175 56.409 C 0.0 **** 0.0
16937 H 41.124 14.899 56.292 H 0.0 **** 0.0
16938 H 42.783 14.479 55.802 H 0.0 **** 0.0
16939 H 41.586 13.192 56.087 H 0.0 **** 0.0
16940 H 42.227 14.13 57.457 H 0.0 **** 0.0
16941 C 15.793 45.576 9.153 C 0.0 **** 0.0
16942 H 16.112 46.255 9.944 H 0.0 **** 0.0
16943 H 15.278 44.722 9.593 H 0.0 **** 0.0
16944 H 16.666 45.229 8.599 H 0.0 **** 0.0
16945 H 15.118 46.1 8.476 H 0.0 **** 0.0
16946 C 17.053 58.34 52.796 C 0.0 **** 0.0
16947 H 17.393 59.272 52.345 H 0.0 **** 0.0
16948 H 17.916 57.751 53.108 H 0.0 **** 0.0
16949 H 16.472 57.775 52.068 H 0.0 **** 0.0
16950 H 16.432 58.562 53.664 H 0.0 **** 0.0
16951 C 81.671 63.493 66.599 C 0.0 **** 0.0
16952 H 80.87 62.755 66.56 H 0.0 **** 0.0
16953 H 82.057 63.661 65.593 H 0.0 **** 0.0
16954 H 82.472 63.125 67.24 H 0.0 **** 0.0
16955 H 81.284 64.429 67.001 H 0.0 **** 0.0
16956 C 30.574 32.489 79.728 C 0.0 **** 0.0
16957 H 31.361 33.233 79.599 H 0.0 **** 0.0
16958 H 30.07 32.326 78.775 H 0.0 **** 0.0
16959 H 29.854 32.846 80.464 H 0.0 **** 0.0
16960 H 31.013 31.553 80.073 H 0.0 **** 0.0
16961 C 12.447 40.14 16.397 C 0.0 **** 0.0
16962 H 12.465 40.805 17.261 H 0.0 **** 0.0
16963 H 13.28 39.439 16.462 H 0.0 **** 0.0
16964 H 12.538 40.729 15.485 H 0.0 **** 0.0
16965 H 11.507 39.589 16.382 H 0.0 **** 0.0
16966 C 19.452 3.174 9.42 C 0.0 **** 0.0
16967 H 19.575 2.271 10.019 H 0.0 **** 0.0
16968 H 19.553 4.051 10.06 H 0.0 **** 0.0
16969 H 18.464 3.172 8.959 H 0.0 **** 0.0
16970 H 20.216 3.2 8.643 H 0.0 **** 0.0
16971 C 7.558 72.635 18.709 C 0.0 **** 0.0
16972 H 7.411 72.398 17.655 H 0.0 **** 0.0
16973 H 8.577 72.378 19.0 H 0.0 **** 0.0
16974 H 6.852 72.063 19.312 H 0.0 **** 0.0
16975 H 7.392 73.7 18.868 H 0.0 **** 0.0
16976 C 47.284 37.01 95.502 C 0.0 **** 0.0
16977 H 47.638 38.041 95.495 H 0.0 **** 0.0
16978 H 47.956 36.399 96.105 H 0.0 **** 0.0
16979 H 47.26 36.627 94.482 H 0.0 **** 0.0
16980 H 46.28 36.974 95.927 H 0.0 **** 0.0
16981 C 22.285 18.337 62.028 C 0.0 **** 0.0
16982 H 21.264 18.709 61.935 H 0.0 **** 0.0
16983 H 22.986 19.157 61.878 H 0.0 **** 0.0
16984 H 22.459 17.566 61.278 H 0.0 **** 0.0
16985 H 22.427 17.914 63.023 H 0.0 **** 0.0
16986 C 56.278 95.635 28.634 C 0.0 **** 0.0
16987 H 56.379 94.984 29.502 H 0.0 **** 0.0
16988 H 57.116 96.332 28.603 H 0.0 **** 0.0
16989 H 55.344 96.193 28.704 H 0.0 **** 0.0
16990 H 56.273 95.031 27.726 H 0.0 **** 0.0
16991 C 16.745 62.079 24.409 C 0.0 **** 0.0
16992 H 17.107 61.923 25.425 H 0.0 **** 0.0
16993 H 16.945 63.108 24.107 H 0.0 **** 0.0
16994 H 15.672 61.891 24.372 H 0.0 **** 0.0
16995 H 17.257 61.395 23.732 H 0.0 **** 0.0
16996 C 47.696 46.905 67.992 C 0.0 **** 0.0
16997 H 46.757 47.278 67.583 H 0.0 **** 0.0
16998 H 47.893 45.908 67.597 H 0.0 **** 0.0
16999 H 47.626 46.858 69.079 H 0.0 **** 0.0
17000 H 48.507 47.575 67.709 H 0.0 **** 0.0
17001 C 24.445 93.911 77.668 C 0.0 **** 0.0
17002 H 23.531 93.571 78.154 H 0.0 **** 0.0
17003 H 25.264 93.901 78.388 H 0.0 **** 0.0
17004 H 24.302 94.925 77.295 H 0.0 **** 0.0
17005 H 24.683 93.248 76.837 H 0.0 **** 0.0
17006 C 75.865 72.968 57.932 C 0.0 **** 0.0
17007 H 74.868 73.031 57.494 H 0.0 **** 0.0
17008 H 75.786 72.994 59.019 H 0.0 **** 0.0
17009 H 76.465 73.81 57.59 H 0.0 **** 0.0
17010 H 76.338 72.035 57.624 H 0.0 **** 0.0
17011 C 61.382 10.599 78.391 C 0.0 **** 0.0
17012 H 61.499 10.465 77.316 H 0.0 **** 0.0
17013 H 62.084 11.356 78.742 H 0.0 **** 0.0
17014 H 61.581 9.655 78.899 H 0.0 **** 0.0
17015 H 60.363 10.92 78.608 H 0.0 **** 0.0
17016 C 40.028 17.459 69.551 C 0.0 **** 0.0
17017 H 39.141 16.859 69.756 H 0.0 **** 0.0
17018 H 40.117 18.243 70.303 H 0.0 **** 0.0
17019 H 39.94 17.91 68.563 H 0.0 **** 0.0
17020 H 40.911 16.822 69.583 H 0.0 **** 0.0
17021 C 52.847 25.118 36.583 C 0.0 **** 0.0
17022 H 52.285 25.593 37.387 H 0.0 **** 0.0
17023 H 53.737 25.709 36.364 H 0.0 **** 0.0
17024 H 52.223 25.056 35.692 H 0.0 **** 0.0
17025 H 53.143 24.115 36.89 H 0.0 **** 0.0
17026 C 63.093 16.337 86.849 C 0.0 **** 0.0
17027 H 63.183 16.22 87.929 H 0.0 **** 0.0
17028 H 64.088 16.419 86.41 H 0.0 **** 0.0
17029 H 62.523 17.239 86.628 H 0.0 **** 0.0
17030 H 62.581 15.471 86.431 H 0.0 **** 0.0
17031 C 77.356 11.962 34.355 C 0.0 **** 0.0
17032 H 78.04 12.402 35.08 H 0.0 **** 0.0
17033 H 77.886 11.214 33.764 H 0.0 **** 0.0
17034 H 76.974 12.742 33.697 H 0.0 **** 0.0
17035 H 76.525 11.489 34.879 H 0.0 **** 0.0
17036 C 97.92 5.452 24.283 C 0.0 **** 0.0
17037 H 97.673 5.793 23.278 H 0.0 **** 0.0
17038 H 97.565 6.182 25.011 H 0.0 **** 0.0
17039 H 99.001 5.343 24.374 H 0.0 **** 0.0
17040 H 97.441 4.491 24.469 H 0.0 **** 0.0
17041 C 73.157 42.226 73.418 C 0.0 **** 0.0
17042 H 73.084 42.25 74.506 H 0.0 **** 0.0
17043 H 72.157 42.279 72.986 H 0.0 **** 0.0
17044 H 73.639 41.299 73.107 H 0.0 **** 0.0
17045 H 73.747 43.076 73.075 H 0.0 **** 0.0
17046 C 84.4 74.84 96.381 C 0.0 **** 0.0
17047 H 83.419 74.768 96.849 H 0.0 **** 0.0
17048 H 84.319 75.408 95.453 H 0.0 **** 0.0
17049 H 84.773 73.839 96.163 H 0.0 **** 0.0
17050 H 85.09 75.345 97.057 H 0.0 **** 0.0
17051 C 80.624 65.23 81.79 C 0.0 **** 0.0
17052 H 80.667 64.479 82.579 H 0.0 **** 0.0
17053 H 81.408 65.034 81.059 H 0.0 **** 0.0
17054 H 80.77 66.22 82.224 H 0.0 **** 0.0
17055 H 79.651 65.188 81.301 H 0.0 **** 0.0
17056 C 8.309 22.112 55.58 C 0.0 **** 0.0
17057 H 7.378 21.725 55.993 H 0.0 **** 0.0
17058 H 9.088 21.355 55.668 H 0.0 **** 0.0
17059 H 8.606 23.006 56.129 H 0.0 **** 0.0
17060 H 8.163 22.363 54.529 H 0.0 **** 0.0
17061 C 30.575 44.702 92.985 C 0.0 **** 0.0
17062 H 31.026 45.413 92.291 H 0.0 **** 0.0
17063 H 30.002 45.244 93.737 H 0.0 **** 0.0
17064 H 31.36 44.123 93.472 H 0.0 **** 0.0
17065 H 29.914 44.031 92.437 H 0.0 **** 0.0
17066 C 63.612 78.993 73.962 C 0.0 **** 0.0
17067 H 63.805 79.347 74.975 H 0.0 **** 0.0
17068 H 63.007 79.729 73.431 H 0.0 **** 0.0
17069 H 63.076 78.045 74.005 H 0.0 **** 0.0
17070 H 64.558 78.853 73.44 H 0.0 **** 0.0
17071 C 96.176 48.242 37.119 C 0.0 **** 0.0
17072 H 96.84 47.896 37.912 H 0.0 **** 0.0
17073 H 96.511 47.839 36.163 H 0.0 **** 0.0
17074 H 96.195 49.331 37.08 H 0.0 **** 0.0
17075 H 95.16 47.903 37.322 H 0.0 **** 0.0
17076 C 33.254 58.476 52.827 C 0.0 **** 0.0
17077 H 33.873 57.59 52.687 H 0.0 **** 0.0
17078 H 32.719 58.694 51.903 H 0.0 **** 0.0
17079 H 33.888 59.323 53.089 H 0.0 **** 0.0
17080 H 32.538 58.295 53.629 H 0.0 **** 0.0
17081 C 35.79 36.037 25.067 C 0.0 **** 0.0
17082 H 35.675 36.253 24.005 H 0.0 **** 0.0
17083 H 34.976 35.392 25.397 H 0.0 **** 0.0
17084 H 35.767 36.969 25.631 H 0.0 **** 0.0
17085 H 36.743 35.534 25.233 H 0.0 **** 0.0
17086 C 85.635 85.81 77.574 C 0.0 **** 0.0
17087 H 86.702 85.716 77.779 H 0.0 **** 0.0
17088 H 85.414 85.383 76.596 H 0.0 **** 0.0
17089 H 85.357 86.864 77.582 H 0.0 **** 0.0
17090 H 85.07 85.279 78.339 H 0.0 **** 0.0
17091 C 8.697 11.558 85.752 C 0.0 **** 0.0
17092 H 7.913 11.648 85.0 H 0.0 **** 0.0
17093 H 8.245 11.369 86.726 H 0.0 **** 0.0
17094 H 9.271 12.483 85.791 H 0.0 **** 0.0
17095 H 9.358 10.731 85.491 H 0.0 **** 0.0
17096 C 51.702 12.02 28.688 C 0.0 **** 0.0
17097 H 51.74 11.389 29.576 H 0.0 **** 0.0
17098 H 52.484 12.777 28.747 H 0.0 **** 0.0
17099 H 50.729 12.507 28.629 H 0.0 **** 0.0
17100 H 51.856 11.407 27.8 H 0.0 **** 0.0
17101 C 29.367 48.304 95.663 C 0.0 **** 0.0
17102 H 30.146 48.992 95.334 H 0.0 **** 0.0
17103 H 29.746 47.283 95.627 H 0.0 **** 0.0
17104 H 28.502 48.394 95.006 H 0.0 **** 0.0
17105 H 29.074 48.548 96.684 H 0.0 **** 0.0
17106 C 57.776 71.968 33.51 C 0.0 **** 0.0
17107 H 57.238 71.591 34.38 H 0.0 **** 0.0
17108 H 58.758 71.498 33.458 H 0.0 **** 0.0
17109 H 57.894 73.048 33.596 H 0.0 **** 0.0
17110 H 57.212 71.736 32.606 H 0.0 **** 0.0
17111 C 13.162 37.27 66.789 C 0.0 **** 0.0
17112 H 13.17 37.221 67.878 H 0.0 **** 0.0
17113 H 12.536 36.469 66.395 H 0.0 **** 0.0
17114 H 14.178 37.157 66.413 H 0.0 **** 0.0
17115 H 12.762 38.234 66.472 H 0.0 **** 0.0
17116 C 34.493 77.552 74.533 C 0.0 **** 0.0
17117 H 33.962 76.628 74.305 H 0.0 **** 0.0
17118 H 33.803 78.264 74.987 H 0.0 **** 0.0
17119 H 34.899 77.974 73.613 H 0.0 **** 0.0
17120 H 35.307 77.342 75.226 H 0.0 **** 0.0
17121 C 64.195 39.008 53.677 C 0.0 **** 0.0
17122 H 65.235 39.161 53.968 H 0.0 **** 0.0
17123 H 63.885 39.809 53.006 H 0.0 **** 0.0
17124 H 63.565 39.014 54.567 H 0.0 **** 0.0
17125 H 64.097 38.049 53.169 H 0.0 **** 0.0
17126 C 61.363 6.744 62.278 C 0.0 **** 0.0
17127 H 61.451 6.333 61.272 H 0.0 **** 0.0
17128 H 61.362 7.833 62.227 H 0.0 **** 0.0
17129 H 62.206 6.409 62.882 H 0.0 **** 0.0
17130 H 60.433 6.4 62.731 H 0.0 **** 0.0
17131 C 88.252 31.861 2.183 C 0.0 **** 0.0
17132 H 87.583 31.153 2.673 H 0.0 **** 0.0
17133 H 89.286 31.592 2.402 H 0.0 **** 0.0
17134 H 88.052 32.866 2.553 H 0.0 **** 0.0
17135 H 88.089 31.83 1.106 H 0.0 **** 0.0
17136 C 35.188 86.586 88.822 C 0.0 **** 0.0
17137 H 34.931 86.706 87.769 H 0.0 **** 0.0
17138 H 34.493 85.887 89.287 H 0.0 **** 0.0
17139 H 35.124 87.551 89.324 H 0.0 **** 0.0
17140 H 36.203 86.199 88.906 H 0.0 **** 0.0
17141 C 90.08 36.828 63.985 C 0.0 **** 0.0
17142 H 89.527 36.526 63.096 H 0.0 **** 0.0
17143 H 89.433 36.75 64.859 H 0.0 **** 0.0
17144 H 90.416 37.859 63.872 H 0.0 **** 0.0
17145 H 90.945 36.177 64.114 H 0.0 **** 0.0
17146 C 58.107 64.616 90.744 C 0.0 **** 0.0
17147 H 58.599 65.505 90.348 H 0.0 **** 0.0
17148 H 58.155 64.63 91.833 H 0.0 **** 0.0
17149 H 58.611 63.725 90.369 H 0.0 **** 0.0
17150 H 57.065 64.606 90.425 H 0.0 **** 0.0
17151 C 57.375 68.225 54.203 C 0.0 **** 0.0
17152 H 57.971 67.388 53.841 H 0.0 **** 0.0
17153 H 56.349 68.121 53.849 H 0.0 **** 0.0
17154 H 57.796 69.159 53.83 H 0.0 **** 0.0
17155 H 57.384 68.233 55.293 H 0.0 **** 0.0
17156 C 50.016 5.188 20.488 C 0.0 **** 0.0
17157 H 49.914 5.202 19.403 H 0.0 **** 0.0
17158 H 49.032 5.086 20.945 H 0.0 **** 0.0
17159 H 50.478 6.118 20.821 H 0.0 **** 0.0
17160 H 50.643 4.346 20.782 H 0.0 **** 0.0
17161 C 39.852 6.904 93.436 C 0.0 **** 0.0
17162 H 39.807 6.871 92.348 H 0.0 **** 0.0
17163 H 40.821 7.292 93.749 H 0.0 **** 0.0
17164 H 39.717 5.898 93.835 H 0.0 **** 0.0
17165 H 39.061 7.553 93.813 H 0.0 **** 0.0
17166 C 18.157 65.469 57.981 C 0.0 **** 0.0
17167 H 18.19 65.691 56.915 H 0.0 **** 0.0
17168 H 17.132 65.236 58.272 H 0.0 **** 0.0
17169 H 18.506 66.336 58.543 H 0.0 **** 0.0
17170 H 18.799 64.615 58.194 H 0.0 **** 0.0
17171 C 20.184 48.345 60.773 C 0.0 **** 0.0
17172 H 19.797 48.002 61.733 H 0.0 **** 0.0
17173 H 21.274 48.355 60.804 H 0.0 **** 0.0
17174 H 19.817 49.351 60.572 H 0.0 **** 0.0
17175 H 19.848 47.671 59.985 H 0.0 **** 0.0
17176 C 34.341 42.435 48.357 C 0.0 **** 0.0
17177 H 34.497 42.5 47.281 H 0.0 **** 0.0
17178 H 33.375 41.97 48.557 H 0.0 **** 0.0
17179 H 34.359 43.436 48.789 H 0.0 **** 0.0
17180 H 35.134 41.833 48.802 H 0.0 **** 0.0
17181 C 43.178 56.799 89.515 C 0.0 **** 0.0
17182 H 43.372 57.375 88.609 H 0.0 **** 0.0
17183 H 42.217 57.096 89.935 H 0.0 **** 0.0
17184 H 43.967 56.991 90.242 H 0.0 **** 0.0
17185 H 43.157 55.737 89.272 H 0.0 **** 0.0
17186 C 88.459 62.597 22.246 C 0.0 **** 0.0
17187 H 87.555 62.795 21.669 H 0.0 **** 0.0
17188 H 89.05 61.831 21.743 H 0.0 **** 0.0
17189 H 88.185 62.25 23.242 H 0.0 **** 0.0
17190 H 89.045 63.513 22.328 H 0.0 **** 0.0
17191 C 65.771 49.449 98.393 C 0.0 **** 0.0
17192 H 65.764 50.354 99.001 H 0.0 **** 0.0
17193 H 65.062 48.731 98.804 H 0.0 **** 0.0
17194 H 66.772 49.017 98.399 H 0.0 **** 0.0
17195 H 65.488 49.697 97.37 H 0.0 **** 0.0
17196 C 23.13 29.165 73.298 C 0.0 **** 0.0
17197 H 23.51 28.86 72.323 H 0.0 **** 0.0
17198 H 23.748 28.727 74.081 H 0.0 **** 0.0
17199 H 22.102 28.82 73.41 H 0.0 **** 0.0
17200 H 23.159 30.251 73.375 H 0.0 **** 0.0
17201 C 37.852 29.415 44.492 C 0.0 **** 0.0
17202 H 37.756 30.0 43.578 H 0.0 **** 0.0
17203 H 37.141 28.588 44.47 H 0.0 **** 0.0
17204 H 37.644 30.05 45.353 H 0.0 **** 0.0
17205 H 38.866 29.021 44.567 H 0.0 **** 0.0
17206 C 92.5 43.91 24.558 C 0.0 **** 0.0
17207 H 92.954 43.908 25.549 H 0.0 **** 0.0
17208 H 93.215 43.526 23.831 H 0.0 **** 0.0
17209 H 92.218 44.928 24.289 H 0.0 **** 0.0
17210 H 91.612 43.277 24.564 H 0.0 **** 0.0
17211 C 90.328 46.707 41.019 C 0.0 **** 0.0
17212 H 89.58 47.398 41.408 H 0.0 **** 0.0
17213 H 90.626 47.021 40.018 H 0.0 **** 0.0
17214 H 89.908 45.703 40.975 H 0.0 **** 0.0
17215 H 91.199 46.708 41.674 H 0.0 **** 0.0
17216 C 44.745 45.484 49.381 C 0.0 **** 0.0
17217 H 45.033 45.114 50.365 H 0.0 **** 0.0
17218 H 45.598 45.418 48.705 H 0.0 **** 0.0
17219 H 44.425 46.523 49.462 H 0.0 **** 0.0
17220 H 43.925 44.881 48.992 H 0.0 **** 0.0
17221 C 3.679 75.95 55.966 C 0.0 **** 0.0
17222 H 3.43 75.369 56.854 H 0.0 **** 0.0
17223 H 2.807 76.525 55.652 H 0.0 **** 0.0
17224 H 3.978 75.276 55.163 H 0.0 **** 0.0
17225 H 4.5 76.63 56.194 H 0.0 **** 0.0
17226 C 28.524 36.451 91.445 C 0.0 **** 0.0
17227 H 28.032 37.224 90.855 H 0.0 **** 0.0
17228 H 27.787 35.948 92.071 H 0.0 **** 0.0
17229 H 29.287 36.906 92.076 H 0.0 **** 0.0
17230 H 28.99 35.726 90.778 H 0.0 **** 0.0
17231 C 71.733 62.028 84.941 C 0.0 **** 0.0
17232 H 71.833 63.087 84.706 H 0.0 **** 0.0
17233 H 71.647 61.901 86.02 H 0.0 **** 0.0
17234 H 72.612 61.492 84.581 H 0.0 **** 0.0
17235 H 70.842 61.63 84.456 H 0.0 **** 0.0
17236 C 70.171 50.648 3.95 C 0.0 **** 0.0
17237 H 70.141 50.446 2.879 H 0.0 **** 0.0
17238 H 71.172 50.444 4.33 H 0.0 **** 0.0
17239 H 69.45 50.008 4.46 H 0.0 **** 0.0
17240 H 69.919 51.693 4.129 H 0.0 **** 0.0
17241 C 51.871 42.924 36.124 C 0.0 **** 0.0
17242 H 52.928 43.111 36.312 H 0.0 **** 0.0
17243 H 51.632 43.189 35.094 H 0.0 **** 0.0
17244 H 51.269 43.528 36.804 H 0.0 **** 0.0
17245 H 51.654 41.869 36.288 H 0.0 **** 0.0
17246 C 29.801 71.301 95.064 C 0.0 **** 0.0
17247 H 29.805 71.361 96.152 H 0.0 **** 0.0
17248 H 29.257 72.154 94.656 H 0.0 **** 0.0
17249 H 29.315 70.377 94.752 H 0.0 **** 0.0
17250 H 30.827 71.315 94.696 H 0.0 **** 0.0
17251 C 92.704 83.269 78.285 C 0.0 **** 0.0
17252 H 92.648 83.882 79.185 H 0.0 **** 0.0
17253 H 93.152 83.848 77.478 H 0.0 **** 0.0
17254 H 91.701 82.957 77.996 H 0.0 **** 0.0
17255 H 93.315 82.388 78.484 H 0.0 **** 0.0
17256 C 39.43 93.878 6.122 C 0.0 **** 0.0
17257 H 38.825 94.48 5.444 H 0.0 **** 0.0
17258 H 39.88 94.523 6.877 H 0.0 **** 0.0
17259 H 40.216 93.375 5.558 H 0.0 **** 0.0
17260 H 38.8 93.134 6.609 H 0.0 **** 0.0
17261 C 37.768 59.675 28.703 C 0.0 **** 0.0
17262 H 36.774 59.291 28.475 H 0.0 **** 0.0
17263 H 38.36 58.892 29.179 H 0.0 **** 0.0
17264 H 37.683 60.527 29.376 H 0.0 **** 0.0
17265 H 38.256 59.988 27.78 H 0.0 **** 0.0
17266 C 36.038 36.661 77.573 C 0.0 **** 0.0
17267 H 35.95 36.558 78.654 H 0.0 **** 0.0
17268 H 37.064 36.451 77.271 H 0.0 **** 0.0
17269 H 35.775 37.679 77.283 H 0.0 **** 0.0
17270 H 35.363 35.958 77.085 H 0.0 **** 0.0
17271 C 4.831 74.023 44.723 C 0.0 **** 0.0
17272 H 5.206 73.199 44.116 H 0.0 **** 0.0
17273 H 5.11 73.863 45.765 H 0.0 **** 0.0
17274 H 3.745 74.07 44.64 H 0.0 **** 0.0
17275 H 5.263 74.96 44.371 H 0.0 **** 0.0
17276 C 95.16 10.058 27.8 C 0.0 **** 0.0
17277 H 95.029 11.027 28.281 H 0.0 **** 0.0
17278 H 94.786 10.106 26.777 H 0.0 **** 0.0
17279 H 94.607 9.299 28.354 H 0.0 **** 0.0
17280 H 96.219 9.799 27.788 H 0.0 **** 0.0
17281 C 54.722 34.935 58.669 C 0.0 **** 0.0
17282 H 54.891 34.138 57.945 H 0.0 **** 0.0
17283 H 53.901 35.566 58.33 H 0.0 **** 0.0
17284 H 55.627 35.536 58.766 H 0.0 **** 0.0
17285 H 54.471 34.499 59.636 H 0.0 **** 0.0
17286 C 49.848 90.363 4.452 C 0.0 **** 0.0
17287 H 50.776 89.858 4.185 H 0.0 **** 0.0
17288 H 49.012 89.878 3.948 H 0.0 **** 0.0
17289 H 49.902 91.407 4.145 H 0.0 **** 0.0
17290 H 49.703 90.308 5.531 H 0.0 **** 0.0
17291 C 2.096 65.433 23.525 C 0.0 **** 0.0
17292 H 2.629 65.71 24.434 H 0.0 **** 0.0
17293 H 2.176 66.241 22.797 H 0.0 **** 0.0
17294 H 1.046 65.257 23.759 H 0.0 **** 0.0
17295 H 2.532 64.525 23.11 H 0.0 **** 0.0
17296 C 94.217 39.231 42.025 C 0.0 **** 0.0
17297 H 93.719 38.417 42.551 H 0.0 **** 0.0
17298 H 93.835 39.293 41.006 H 0.0 **** 0.0
17299 H 95.291 39.045 42.001 H 0.0 **** 0.0
17300 H 94.023 40.171 42.543 H 0.0 **** 0.0
17301 C 15.644 19.483 40.121 C 0.0 **** 0.0
17302 H 16.593 19.397 40.65 H 0.0 **** 0.0
17303 H 15.485 20.52 39.827 H 0.0 **** 0.0
17304 H 14.833 19.162 40.776 H 0.0 **** 0.0
17305 H 15.665 18.852 39.233 H 0.0 **** 0.0
17306 C 4.869 86.202 79.115 C 0.0 **** 0.0
17307 H 5.177 86.754 78.227 H 0.0 **** 0.0
17308 H 4.135 86.787 79.67 H 0.0 **** 0.0
17309 H 5.738 86.015 79.746 H 0.0 **** 0.0
17310 H 4.426 85.251 78.816 H 0.0 **** 0.0
17311 C 84.886 50.607 4.488 C 0.0 **** 0.0
17312 H 84.846 50.549 5.576 H 0.0 **** 0.0
17313 H 85.774 51.162 4.186 H 0.0 **** 0.0
17314 H 83.996 51.117 4.119 H 0.0 **** 0.0
17315 H 84.927 49.601 4.072 H 0.0 **** 0.0
17316 C 49.422 90.064 83.972 C 0.0 **** 0.0
17317 H 49.527 90.125 82.889 H 0.0 **** 0.0
17318 H 49.917 90.918 84.434 H 0.0 **** 0.0
17319 H 49.879 89.141 84.33 H 0.0 **** 0.0
17320 H 48.364 90.071 84.236 H 0.0 **** 0.0
17321 C 61.485 20.723 49.428 C 0.0 **** 0.0
17322 H 62.147 20.4 48.625 H 0.0 **** 0.0
17323 H 61.412 21.811 49.423 H 0.0 **** 0.0
17324 H 61.885 20.389 50.385 H 0.0 **** 0.0
17325 H 60.495 20.292 49.277 H 0.0 **** 0.0
17326 C 59.51 78.22 68.297 C 0.0 **** 0.0
17327 H 59.675 78.548 67.27 H 0.0 **** 0.0
17328 H 59.175 77.183 68.297 H 0.0 **** 0.0
17329 H 58.75 78.848 68.761 H 0.0 **** 0.0
17330 H 60.442 78.302 68.857 H 0.0 **** 0.0
17331 C 55.385 54.18 76.516 C 0.0 **** 0.0
17332 H 54.676 54.588 77.236 H 0.0 **** 0.0
17333 H 54.898 53.405 75.924 H 0.0 **** 0.0
17334 H 56.235 53.752 77.047 H 0.0 **** 0.0
17335 H 55.732 54.976 75.857 H 0.0 **** 0.0
17336 C 39.827 59.619 43.495 C 0.0 **** 0.0
17337 H 40.288 58.918 42.8 H 0.0 **** 0.0
17338 H 38.744 59.489 43.478 H 0.0 **** 0.0
17339 H 40.075 60.639 43.2 H 0.0 **** 0.0
17340 H 40.2 59.431 44.502 H 0.0 **** 0.0
17341 C 10.118 33.618 51.096 C 0.0 **** 0.0
17342 H 9.031 33.548 51.126 H 0.0 **** 0.0
17343 H 10.444 34.456 51.712 H 0.0 **** 0.0
17344 H 10.444 33.775 50.068 H 0.0 **** 0.0
17345 H 10.553 32.695 51.479 H 0.0 **** 0.0
17346 C 68.625 58.004 78.717 C 0.0 **** 0.0
17347 H 69.684 57.944 78.464 H 0.0 **** 0.0
17348 H 68.312 59.048 78.725 H 0.0 **** 0.0
17349 H 68.462 57.568 79.703 H 0.0 **** 0.0
17350 H 68.043 57.455 77.976 H 0.0 **** 0.0
17351 C 40.003 32.276 57.293 C 0.0 **** 0.0
17352 H 39.529 32.161 56.318 H 0.0 **** 0.0
17353 H 39.346 31.877 58.066 H 0.0 **** 0.0
17354 H 40.188 33.333 57.484 H 0.0 **** 0.0
17355 H 40.949 31.734 57.304 H 0.0 **** 0.0
17356 C 69.359 11.969 72.919 C 0.0 **** 0.0
17357 H 69.05 12.189 73.941 H 0.0 **** 0.0
17358 H 68.6 11.353 72.436 H 0.0 **** 0.0
17359 H 70.307 11.432 72.935 H 0.0 **** 0.0
17360 H 69.478 12.901 72.367 H 0.0 **** 0.0
17361 C 43.572 40.826 46.535 C 0.0 **** 0.0
17362 H 44.568 40.654 46.942 H 0.0 **** 0.0
17363 H 43.654 41.358 45.587 H 0.0 **** 0.0
17364 H 42.991 41.424 47.238 H 0.0 **** 0.0
17365 H 43.075 39.87 46.375 H 0.0 **** 0.0
17366 C 38.815 24.604 59.754 C 0.0 **** 0.0
17367 H 38.444 23.953 58.964 H 0.0 **** 0.0
17368 H 38.447 24.253 60.718 H 0.0 **** 0.0
17369 H 38.465 25.622 59.58 H 0.0 **** 0.0
17370 H 39.905 24.59 59.754 H 0.0 **** 0.0
17371 C 93.322 76.105 57.307 C 0.0 **** 0.0
17372 H 93.333 75.76 56.273 H 0.0 **** 0.0
17373 H 92.293 76.283 57.62 H 0.0 **** 0.0
17374 H 93.892 77.03 57.387 H 0.0 **** 0.0
17375 H 93.77 75.345 57.948 H 0.0 **** 0.0
17376 C 74.429 35.278 61.418 C 0.0 **** 0.0
17377 H 74.016 34.923 62.362 H 0.0 **** 0.0
17378 H 74.76 34.427 60.823 H 0.0 **** 0.0
17379 H 75.275 35.935 61.616 H 0.0 **** 0.0
17380 H 73.662 35.827 60.871 H 0.0 **** 0.0
17381 C 52.722 87.27 21.972 C 0.0 **** 0.0
17382 H 52.806 87.44 23.045 H 0.0 **** 0.0
17383 H 53.718 87.245 21.529 H 0.0 **** 0.0
17384 H 52.143 88.075 21.52 H 0.0 **** 0.0
17385 H 52.222 86.318 21.793 H 0.0 **** 0.0
17386 C 3.561 81.287 97.425 C 0.0 **** 0.0
17387 H 2.854 82.09 97.221 H 0.0 **** 0.0
17388 H 4.574 81.69 97.443 H 0.0 **** 0.0
17389 H 3.485 80.529 96.645 H 0.0 **** 0.0
17390 H 3.332 80.838 98.391 H 0.0 **** 0.0
17391 C 25.717 10.778 88.328 C 0.0 **** 0.0
17392 H 25.072 11.587 87.983 H 0.0 **** 0.0
17393 H 25.327 10.377 89.264 H 0.0 **** 0.0
17394 H 26.725 11.161 88.488 H 0.0 **** 0.0
17395 H 25.743 9.989 87.577 H 0.0 **** 0.0
17396 C 53.877 10.676 93.948 C 0.0 **** 0.0
17397 H 53.775 11.357 94.793 H 0.0 **** 0.0
17398 H 53.04 10.819 93.264 H 0.0 **** 0.0
17399 H 53.881 9.648 94.309 H 0.0 **** 0.0
17400 H 54.812 10.882 93.427 H 0.0 **** 0.0
17401 C 11.242 71.368 23.515 C 0.0 **** 0.0
17402 H 11.534 71.211 22.476 H 0.0 **** 0.0
17403 H 12.022 70.985 24.172 H 0.0 **** 0.0
17404 H 10.308 70.84 23.713 H 0.0 **** 0.0
17405 H 11.103 72.433 23.696 H 0.0 **** 0.0
17406 C 18.103 88.532 9.546 C 0.0 **** 0.0
17407 H 18.135 89.42 10.177 H 0.0 **** 0.0
17408 H 17.7 87.696 10.116 H 0.0 **** 0.0
17409 H 19.111 88.291 9.208 H 0.0 **** 0.0
17410 H 17.467 88.724 8.682 H 0.0 **** 0.0
17411 C 41.694 33.982 91.815 C 0.0 **** 0.0
17412 H 41.675 33.806 92.89 H 0.0 **** 0.0
17413 H 41.436 35.022 91.613 H 0.0 **** 0.0
17414 H 40.973 33.327 91.327 H 0.0 **** 0.0
17415 H 42.693 33.774 91.431 H 0.0 **** 0.0
17416 C 67.717 71.765 36.218 C 0.0 **** 0.0
17417 H 67.858 72.147 35.207 H 0.0 **** 0.0
17418 H 66.83 72.22 36.658 H 0.0 **** 0.0
17419 H 68.59 72.011 36.824 H 0.0 **** 0.0
17420 H 67.592 70.683 36.184 H 0.0 **** 0.0
17421 C 19.863 88.134 96.728 C 0.0 **** 0.0
17422 H 19.691 88.569 97.713 H 0.0 **** 0.0
17423 H 19.038 87.467 96.477 H 0.0 **** 0.0
17424 H 20.796 87.571 96.738 H 0.0 **** 0.0
17425 H 19.927 88.93 95.986 H 0.0 **** 0.0
17426 C 95.936 10.88 92.592 C 0.0 **** 0.0
17427 H 95.448 10.085 92.029 H 0.0 **** 0.0
17428 H 96.498 10.446 93.419 H 0.0 **** 0.0
17429 H 95.182 11.563 92.983 H 0.0 **** 0.0
17430 H 96.615 11.425 91.937 H 0.0 **** 0.0
17431 C 67.74 70.1 38.853 C 0.0 **** 0.0
17432 H 67.144 69.385 38.286 H 0.0 **** 0.0
17433 H 68.788 70.008 38.566 H 0.0 **** 0.0
17434 H 67.636 69.895 39.919 H 0.0 **** 0.0
17435 H 67.392 71.111 38.642 H 0.0 **** 0.0
17436 C 36.079 65.31 84.026 C 0.0 **** 0.0
17437 H 35.796 64.266 83.89 H 0.0 **** 0.0
17438 H 35.923 65.595 85.067 H 0.0 **** 0.0
17439 H 35.466 65.94 83.381 H 0.0 **** 0.0
17440 H 37.13 65.439 83.767 H 0.0 **** 0.0
17441 C 13.907 57.666 32.952 C 0.0 **** 0.0
17442 H 13.987 57.474 34.022 H 0.0 **** 0.0
17443 H 14.706 57.142 32.428 H 0.0 **** 0.0
17444 H 13.992 58.737 32.768 H 0.0 **** 0.0
17445 H 12.942 57.311 32.591 H 0.0 **** 0.0
17446 C 44.382 22.506 88.196 C 0.0 **** 0.0
17447 H 43.978 22.912 89.123 H 0.0 **** 0.0
17448 H 43.584 22.426 87.457 H 0.0 **** 0.0
17449 H 44.804 21.519 88.384 H 0.0 **** 0.0
17450 H 45.162 23.168 87.819 H 0.0 **** 0.0
17451 C 63.587 39.779 13.173 C 0.0 **** 0.0
17452 H 63.077 40.074 14.09 H 0.0 **** 0.0
17453 H 64.653 39.667 13.371 H 0.0 **** 0.0
17454 H 63.436 40.544 12.411 H 0.0 **** 0.0
17455 H 63.181 38.831 12.821 H 0.0 **** 0.0
17456 C 55.104 8.973 55.119 C 0.0 **** 0.0
17457 H 54.822 9.374 56.093 H 0.0 **** 0.0
17458 H 56.06 8.456 55.203 H 0.0 **** 0.0
17459 H 55.192 9.789 54.402 H 0.0 **** 0.0
17460 H 54.341 8.272 54.78 H 0.0 **** 0.0
17461 C 86.789 4.611 65.801 C 0.0 **** 0.0
17462 H 85.814 4.126 65.837 H 0.0 **** 0.0
17463 H 86.975 5.124 66.745 H 0.0 **** 0.0
17464 H 86.805 5.334 64.985 H 0.0 **** 0.0
17465 H 87.562 3.861 65.637 H 0.0 **** 0.0
17466 C 42.572 41.601 50.514 C 0.0 **** 0.0
17467 H 42.129 40.782 51.08 H 0.0 **** 0.0
17468 H 43.572 41.316 50.187 H 0.0 **** 0.0
17469 H 42.635 42.487 51.145 H 0.0 **** 0.0
17470 H 41.953 41.817 49.643 H 0.0 **** 0.0
17471 C 37.792 50.818 1.172 C 0.0 **** 0.0
17472 H 37.751 51.437 2.068 H 0.0 **** 0.0
17473 H 37.299 49.865 1.366 H 0.0 **** 0.0
17474 H 38.833 50.64 0.901 H 0.0 **** 0.0
17475 H 37.285 51.329 0.354 H 0.0 **** 0.0
17476 C 40.035 43.207 67.292 C 0.0 **** 0.0
17477 H 39.737 44.22 67.563 H 0.0 **** 0.0
17478 H 40.316 42.658 68.191 H 0.0 **** 0.0
17479 H 40.886 43.249 66.611 H 0.0 **** 0.0
17480 H 39.203 42.702 66.802 H 0.0 **** 0.0
17481 C 74.332 61.42 28.893 C 0.0 **** 0.0
17482 H 73.269 61.42 28.652 H 0.0 **** 0.0
17483 H 74.506 62.053 29.763 H 0.0 **** 0.0
17484 H 74.897 61.805 28.044 H 0.0 **** 0.0
17485 H 74.654 60.402 29.113 H 0.0 **** 0.0
17486 C 21.577 35.131 91.387 C 0.0 **** 0.0
17487 H 21.647 35.047 92.471 H 0.0 **** 0.0
17488 H 20.929 35.969 91.128 H 0.0 **** 0.0
17489 H 21.163 34.21 90.977 H 0.0 **** 0.0
17490 H 22.571 35.299 90.971 H 0.0 **** 0.0
17491 C 10.625 13.923 13.224 C 0.0 **** 0.0
17492 H 10.606 13.706 12.156 H 0.0 **** 0.0
17493 H 9.61 14.104 13.576 H 0.0 **** 0.0
17494 H 11.236 14.808 13.404 H 0.0 **** 0.0
17495 H 11.05 13.074 13.76 H 0.0 **** 0.0
17496 C 27.256 86.305 54.678 C 0.0 **** 0.0
17497 H 26.876 86.458 55.688 H 0.0 **** 0.0
17498 H 26.667 86.894 53.975 H 0.0 **** 0.0
17499 H 27.184 85.249 54.419 H 0.0 **** 0.0
17500 H 28.299 86.62 54.631 H 0.0 **** 0.0
17501 C 5.314 41.105 54.094 C 0.0 **** 0.0
17502 H 5.44 40.342 53.326 H 0.0 **** 0.0
17503 H 5.798 40.777 55.015 H 0.0 **** 0.0
17504 H 4.252 41.263 54.278 H 0.0 **** 0.0
17505 H 5.768 42.037 53.757 H 0.0 **** 0.0
17506 C 13.435 54.022 54.571 C 0.0 **** 0.0
17507 H 12.695 54.422 53.877 H 0.0 **** 0.0
17508 H 14.159 53.42 54.022 H 0.0 **** 0.0
17509 H 12.936 53.403 55.316 H 0.0 **** 0.0
17510 H 13.948 54.845 55.067 H 0.0 **** 0.0
17511 C 75.509 42.69 67.434 C 0.0 **** 0.0
17512 H 74.686 42.869 66.742 H 0.0 **** 0.0
17513 H 76.355 42.269 66.891 H 0.0 **** 0.0
17514 H 75.188 41.992 68.207 H 0.0 **** 0.0
17515 H 75.805 43.632 67.896 H 0.0 **** 0.0
17516 C 89.074 29.813 23.421 C 0.0 **** 0.0
17517 H 89.497 28.817 23.547 H 0.0 **** 0.0
17518 H 89.78 30.441 22.877 H 0.0 **** 0.0
17519 H 88.878 30.251 24.4 H 0.0 **** 0.0
17520 H 88.142 29.744 22.86 H 0.0 **** 0.0
17521 C 27.887 63.554 19.007 C 0.0 **** 0.0
17522 H 26.91 63.181 19.315 H 0.0 **** 0.0
17523 H 28.549 62.713 18.8 H 0.0 **** 0.0
17524 H 28.312 64.162 19.806 H 0.0 **** 0.0
17525 H 27.777 64.161 18.109 H 0.0 **** 0.0
17526 C 4.625 26.015 12.528 C 0.0 **** 0.0
17527 H 4.867 25.714 11.508 H 0.0 **** 0.0
17528 H 3.858 26.789 12.506 H 0.0 **** 0.0
17529 H 5.521 26.404 13.013 H 0.0 **** 0.0
17530 H 4.257 25.153 13.083 H 0.0 **** 0.0
17531 C 95.048 44.645 62.661 C 0.0 **** 0.0
17532 H 95.037 44.611 61.572 H 0.0 **** 0.0
17533 H 94.124 44.213 63.047 H 0.0 **** 0.0
17534 H 95.131 45.681 62.991 H 0.0 **** 0.0
17535 H 95.899 44.075 63.034 H 0.0 **** 0.0
17536 C 17.774 63.423 92.202 C 0.0 **** 0.0
17537 H 16.927 62.754 92.354 H 0.0 **** 0.0
17538 H 17.41 64.438 92.038 H 0.0 **** 0.0
17539 H 18.343 63.096 91.333 H 0.0 **** 0.0
17540 H 18.414 63.405 93.084 H 0.0 **** 0.0
17541 C 8.294 5.798 36.742 C 0.0 **** 0.0
17542 H 7.84 4.952 36.226 H 0.0 **** 0.0
17543 H 7.513 6.413 37.188 H 0.0 **** 0.0
17544 H 8.864 6.394 36.029 H 0.0 **** 0.0
17545 H 8.96 5.432 37.523 H 0.0 **** 0.0
17546 C 48.331 96.318 17.156 C 0.0 **** 0.0
17547 H 49.182 96.551 17.796 H 0.0 **** 0.0
17548 H 48.623 95.567 16.422 H 0.0 **** 0.0
17549 H 48.006 97.222 16.642 H 0.0 **** 0.0
17550 H 47.513 95.933 17.766 H 0.0 **** 0.0
17551 C 77.527 14.227 46.339 C 0.0 **** 0.0
17552 H 76.957 13.982 47.235 H 0.0 **** 0.0
17553 H 77.387 15.28 46.096 H 0.0 **** 0.0
17554 H 77.18 13.613 45.508 H 0.0 **** 0.0
17555 H 78.585 14.032 46.517 H 0.0 **** 0.0
17556 C 83.041 6.267 26.953 C 0.0 **** 0.0
17557 H 83.125 6.128 25.875 H 0.0 **** 0.0
17558 H 83.881 5.779 27.449 H 0.0 **** 0.0
17559 H 82.107 5.828 27.304 H 0.0 **** 0.0
17560 H 83.051 7.332 27.183 H 0.0 **** 0.0
17561 C 52.519 36.298 15.586 C 0.0 **** 0.0
17562 H 52.87 35.386 15.103 H 0.0 **** 0.0
17563 H 51.954 36.894 14.869 H 0.0 **** 0.0
17564 H 53.375 36.873 15.941 H 0.0 **** 0.0
17565 H 51.879 36.04 16.429 H 0.0 **** 0.0
17566 C 79.024 71.165 16.138 C 0.0 **** 0.0
17567 H 78.806 70.575 17.028 H 0.0 **** 0.0
17568 H 79.902 70.757 15.638 H 0.0 **** 0.0
17569 H 79.218 72.198 16.427 H 0.0 **** 0.0
17570 H 78.171 71.131 15.461 H 0.0 **** 0.0
17571 C 72.007 86.298 4.138 C 0.0 **** 0.0
17572 H 72.777 87.067 4.067 H 0.0 **** 0.0
17573 H 71.973 85.731 3.208 H 0.0 **** 0.0
17574 H 71.04 86.769 4.313 H 0.0 **** 0.0
17575 H 72.24 85.627 4.965 H 0.0 **** 0.0
17576 C 91.074 84.993 58.147 C 0.0 **** 0.0
17577 H 91.983 84.756 58.699 H 0.0 **** 0.0
17578 H 90.38 85.522 58.801 H 0.0 **** 0.0
17579 H 90.611 84.07 57.796 H 0.0 **** 0.0
17580 H 91.321 85.623 57.293 H 0.0 **** 0.0
17581 C 86.87 67.731 4.161 C 0.0 **** 0.0
17582 H 87.652 68.041 4.854 H 0.0 **** 0.0
17583 H 86.051 67.275 4.717 H 0.0 **** 0.0
17584 H 87.277 67.007 3.455 H 0.0 **** 0.0
17585 H 86.501 68.6 3.617 H 0.0 **** 0.0
17586 C 21.479 18.576 17.216 C 0.0 **** 0.0
17587 H 21.434 18.574 18.305 H 0.0 **** 0.0
17588 H 21.729 17.577 16.861 H 0.0 **** 0.0
17589 H 22.242 19.282 16.886 H 0.0 **** 0.0
17590 H 20.511 18.874 16.814 H 0.0 **** 0.0
17591 C 92.974 29.896 24.983 C 0.0 **** 0.0
17592 H 92.489 29.093 24.429 H 0.0 **** 0.0
17593 H 93.115 30.756 24.327 H 0.0 **** 0.0
17594 H 93.943 29.553 25.346 H 0.0 **** 0.0
17595 H 92.35 30.182 25.829 H 0.0 **** 0.0
17596 C 60.003 25.272 68.773 C 0.0 **** 0.0
17597 H 60.948 24.732 68.828 H 0.0 **** 0.0
17598 H 59.277 24.676 68.219 H 0.0 **** 0.0
17599 H 60.156 26.223 68.264 H 0.0 **** 0.0
17600 H 59.63 25.454 69.781 H 0.0 **** 0.0
17601 C 51.327 33.4 16.973 C 0.0 **** 0.0
17602 H 51.442 33.051 15.947 H 0.0 **** 0.0
17603 H 52.213 33.964 17.266 H 0.0 **** 0.0
17604 H 51.205 32.544 17.636 H 0.0 **** 0.0
17605 H 50.448 34.041 17.042 H 0.0 **** 0.0
17606 C 90.61 2.329 74.539 C 0.0 **** 0.0
17607 H 90.725 2.401 75.62 H 0.0 **** 0.0
17608 H 90.173 3.252 74.158 H 0.0 **** 0.0
17609 H 89.956 1.491 74.299 H 0.0 **** 0.0
17610 H 91.586 2.171 74.08 H 0.0 **** 0.0
17611 C 89.265 97.347 75.345 C 0.0 **** 0.0
17612 H 89.866 97.616 74.477 H 0.0 **** 0.0
17613 H 88.237 97.674 75.19 H 0.0 **** 0.0
17614 H 89.672 97.832 76.232 H 0.0 **** 0.0
17615 H 89.286 96.265 75.48 H 0.0 **** 0.0
17616 C 77.719 55.612 18.691 C 0.0 **** 0.0
17617 H 76.704 55.22 18.627 H 0.0 **** 0.0
17618 H 77.682 56.689 18.856 H 0.0 **** 0.0
17619 H 78.249 55.404 17.762 H 0.0 **** 0.0
17620 H 78.24 55.135 19.521 H 0.0 **** 0.0
17621 C 43.604 23.473 28.342 C 0.0 **** 0.0
17622 H 44.153 24.164 28.981 H 0.0 **** 0.0
17623 H 42.538 23.55 28.554 H 0.0 **** 0.0
17624 H 43.941 22.455 28.535 H 0.0 **** 0.0
17625 H 43.786 23.724 27.297 H 0.0 **** 0.0
17626 C 35.22 42.999 69.478 C 0.0 **** 0.0
17627 H 36.131 43.042 68.881 H 0.0 **** 0.0
17628 H 34.493 43.708 69.081 H 0.0 **** 0.0
17629 H 35.451 43.254 70.512 H 0.0 **** 0.0
17630 H 34.805 41.992 69.436 H 0.0 **** 0.0
17631 C 1.776 84.378 43.996 C 0.0 **** 0.0
17632 H 1.034 84.368 43.197 H 0.0 **** 0.0
17633 H 2.605 85.027 43.712 H 0.0 **** 0.0
17634 H 2.145 83.367 44.162 H 0.0 **** 0.0
17635 H 1.318 84.753 44.911 H 0.0 **** 0.0
17636 C 34.565 39.738 12.901 C 0.0 **** 0.0
17637 H 35.506 39.396 13.329 H 0.0 **** 0.0
17638 H 33.738 39.2 13.365 H 0.0 **** 0.0
17639 H 34.564 39.55 11.827 H 0.0 **** 0.0
17640 H 34.451 40.807 13.082 H 0.0 **** 0.0
17641 C 81.735 49.715 81.711 C 0.0 **** 0.0
17642 H 82.617 49.988 81.132 H 0.0 **** 0.0
17643 H 80.907 50.371 81.442 H 0.0 **** 0.0
17644 H 81.952 49.82 82.774 H 0.0 **** 0.0
17645 H 81.465 48.681 81.496 H 0.0 **** 0.0
17646 C 28.061 15.63 80.117 C 0.0 **** 0.0
17647 H 28.122 15.633 81.205 H 0.0 **** 0.0
17648 H 27.782 16.623 79.766 H 0.0 **** 0.0
17649 H 27.31 14.907 79.797 H 0.0 **** 0.0
17650 H 29.03 15.355 79.7 H 0.0 **** 0.0
17651 C 15.547 20.174 87.635 C 0.0 **** 0.0
17652 H 14.997 20.517 88.51 H 0.0 **** 0.0
17653 H 16.532 20.64 87.619 H 0.0 **** 0.0
17654 H 15.001 20.448 86.732 H 0.0 **** 0.0
17655 H 15.658 19.09 87.677 H 0.0 **** 0.0
17656 C 63.249 32.109 1.402 C 0.0 **** 0.0
17657 H 63.37 31.742 0.383 H 0.0 **** 0.0
17658 H 64.188 32.544 1.745 H 0.0 **** 0.0
17659 H 62.972 31.281 2.055 H 0.0 **** 0.0
17660 H 62.467 32.867 1.424 H 0.0 **** 0.0
17661 C 45.539 38.809 31.698 C 0.0 **** 0.0
17662 H 45.761 39.821 32.039 H 0.0 **** 0.0
17663 H 44.895 38.314 32.426 H 0.0 **** 0.0
17664 H 46.468 38.249 31.594 H 0.0 **** 0.0
17665 H 45.031 38.855 30.735 H 0.0 **** 0.0
17666 C 49.343 63.885 89.564 C 0.0 **** 0.0
17667 H 49.626 64.376 88.633 H 0.0 **** 0.0
17668 H 48.715 64.555 90.152 H 0.0 **** 0.0
17669 H 50.241 63.638 90.131 H 0.0 **** 0.0
17670 H 48.792 62.972 89.341 H 0.0 **** 0.0
17671 C 33.291 20.851 43.173 C 0.0 **** 0.0
17672 H 33.6 20.761 44.214 H 0.0 **** 0.0
17673 H 32.31 21.325 43.125 H 0.0 **** 0.0
17674 H 33.237 19.859 42.723 H 0.0 **** 0.0
17675 H 34.015 21.457 42.629 H 0.0 **** 0.0
17676 C 45.391 22.635 83.083 C 0.0 **** 0.0
17677 H 44.415 22.345 83.474 H 0.0 **** 0.0
17678 H 45.264 23.117 82.113 H 0.0 **** 0.0
17679 H 46.014 21.749 82.969 H 0.0 **** 0.0
17680 H 45.868 23.329 83.774 H 0.0 **** 0.0
17681 C 41.049 76.801 69.994 C 0.0 **** 0.0
17682 H 41.709 76.758 70.861 H 0.0 **** 0.0
17683 H 40.151 76.216 70.192 H 0.0 **** 0.0
17684 H 41.565 76.394 69.125 H 0.0 **** 0.0
17685 H 40.773 77.838 69.801 H 0.0 **** 0.0
17686 C 42.349 3.051 67.194 C 0.0 **** 0.0
17687 H 42.199 2.073 67.651 H 0.0 **** 0.0
17688 H 43.395 3.16 66.905 H 0.0 **** 0.0
17689 H 42.086 3.831 67.909 H 0.0 **** 0.0
17690 H 41.717 3.14 66.31 H 0.0 **** 0.0
17691 C 19.857 75.166 79.097 C 0.0 **** 0.0
17692 H 19.62 74.182 79.503 H 0.0 **** 0.0
17693 H 20.025 75.083 78.023 H 0.0 **** 0.0
17694 H 20.756 75.55 79.577 H 0.0 **** 0.0
17695 H 19.026 75.845 79.284 H 0.0 **** 0.0
17696 C 54.376 42.147 54.432 C 0.0 **** 0.0
17697 H 54.312 42.216 55.518 H 0.0 **** 0.0
17698 H 54.057 43.09 53.989 H 0.0 **** 0.0
17699 H 53.73 41.342 54.081 H 0.0 **** 0.0
17700 H 55.406 41.938 54.142 H 0.0 **** 0.0
17701 C 62.562 64.928 45.085 C 0.0 **** 0.0
17702 H 62.535 65.082 44.006 H 0.0 **** 0.0
17703 H 63.068 65.769 45.559 H 0.0 **** 0.0
17704 H 63.101 64.007 45.307 H 0.0 **** 0.0
17705 H 61.544 64.854 45.467 H 0.0 **** 0.0
17706 C 91.834 60.123 70.226 C 0.0 **** 0.0
17707 H 91.868 59.034 70.188 H 0.0 **** 0.0
17708 H 90.864 60.443 70.606 H 0.0 **** 0.0
17709 H 91.983 60.526 69.224 H 0.0 **** 0.0
17710 H 92.622 60.488 70.885 H 0.0 **** 0.0
17711 C 3.924 12.701 82.35 C 0.0 **** 0.0
17712 H 4.928 13.094 82.506 H 0.0 **** 0.0
17713 H 3.762 12.533 81.285 H 0.0 **** 0.0
17714 H 3.191 13.417 82.721 H 0.0 **** 0.0
17715 H 3.816 11.758 82.887 H 0.0 **** 0.0
17716 C 67.567 68.898 45.469 C 0.0 **** 0.0
17717 H 67.5 68.943 44.382 H 0.0 **** 0.0
17718 H 68.586 69.131 45.78 H 0.0 **** 0.0
17719 H 67.304 67.896 45.808 H 0.0 **** 0.0
17720 H 66.879 69.622 45.906 H 0.0 **** 0.0
17721 C 83.903 70.003 14.57 C 0.0 **** 0.0
17722 H 83.489 69.301 13.846 H 0.0 **** 0.0
17723 H 83.247 70.869 14.652 H 0.0 **** 0.0
17724 H 84.891 70.324 14.24 H 0.0 **** 0.0
17725 H 83.985 69.515 15.541 H 0.0 **** 0.0
17726 C 47.143 24.293 9.226 C 0.0 **** 0.0
17727 H 47.65 24.888 9.986 H 0.0 **** 0.0
17728 H 46.32 24.869 8.804 H 0.0 **** 0.0
17729 H 46.755 23.381 9.68 H 0.0 **** 0.0
17730 H 47.849 24.035 8.437 H 0.0 **** 0.0
17731 C 49.151 13.193 3.811 C 0.0 **** 0.0
17732 H 48.098 13.457 3.714 H 0.0 **** 0.0
17733 H 49.63 13.866 4.522 H 0.0 **** 0.0
17734 H 49.639 13.283 2.84 H 0.0 **** 0.0
17735 H 49.237 12.166 4.167 H 0.0 **** 0.0
17736 C 41.357 68.58 85.204 C 0.0 **** 0.0
17737 H 42.166 67.981 85.62 H 0.0 **** 0.0
17738 H 41.709 69.598 85.033 H 0.0 **** 0.0
17739 H 40.521 68.598 85.904 H 0.0 **** 0.0
17740 H 41.031 68.144 84.26 H 0.0 **** 0.0
17741 C 91.448 67.868 23.628 C 0.0 **** 0.0
17742 H 91.606 67.794 22.552 H 0.0 **** 0.0
17743 H 92.235 68.479 24.07 H 0.0 **** 0.0
17744 H 91.471 66.87 24.068 H 0.0 **** 0.0
17745 H 90.478 68.327 23.822 H 0.0 **** 0.0
17746 C 54.148 14.46 41.724 C 0.0 **** 0.0
17747 H 54.143 14.801 42.759 H 0.0 **** 0.0
17748 H 54.968 14.937 41.188 H 0.0 **** 0.0
17749 H 53.202 14.723 41.25 H 0.0 **** 0.0
17750 H 54.277 13.378 41.699 H 0.0 **** 0.0
17751 C 87.029 74.715 13.1 C 0.0 **** 0.0
17752 H 87.274 74.595 12.045 H 0.0 **** 0.0
17753 H 87.933 74.965 13.656 H 0.0 **** 0.0
17754 H 86.612 73.783 13.483 H 0.0 **** 0.0
17755 H 86.298 75.515 13.215 H 0.0 **** 0.0
17756 C 30.219 33.821 17.334 C 0.0 **** 0.0
17757 H 30.11 33.799 18.419 H 0.0 **** 0.0
17758 H 31.157 33.342 17.053 H 0.0 **** 0.0
17759 H 30.222 34.856 16.991 H 0.0 **** 0.0
17760 H 29.386 33.288 16.875 H 0.0 **** 0.0
17761 C 19.263 23.91 92.461 C 0.0 **** 0.0
17762 H 19.948 24.186 91.659 H 0.0 **** 0.0
17763 H 19.657 23.044 92.992 H 0.0 **** 0.0
17764 H 18.289 23.666 92.038 H 0.0 **** 0.0
17765 H 19.159 24.746 93.153 H 0.0 **** 0.0
17766 C 95.292 17.402 64.222 C 0.0 **** 0.0
17767 H 94.296 17.2 64.616 H 0.0 **** 0.0
17768 H 95.392 16.942 63.238 H 0.0 **** 0.0
17769 H 96.04 16.986 64.896 H 0.0 **** 0.0
17770 H 95.437 18.479 64.137 H 0.0 **** 0.0
17771 C 17.077 8.782 10.345 C 0.0 **** 0.0
17772 H 16.684 8.911 9.336 H 0.0 **** 0.0
17773 H 16.276 8.935 11.069 H 0.0 **** 0.0
17774 H 17.87 9.507 10.521 H 0.0 **** 0.0
17775 H 17.476 7.773 10.452 H 0.0 **** 0.0
17776 C 5.891 1.836 74.188 C 0.0 **** 0.0
17777 H 4.956 1.292 74.057 H 0.0 **** 0.0
17778 H 6.73 1.148 74.075 H 0.0 **** 0.0
17779 H 5.917 2.281 75.182 H 0.0 **** 0.0
17780 H 5.962 2.622 73.436 H 0.0 **** 0.0
17781 C 89.827 76.662 81.338 C 0.0 **** 0.0
17782 H 89.791 76.656 82.427 H 0.0 **** 0.0
17783 H 90.177 77.634 80.991 H 0.0 **** 0.0
17784 H 88.83 76.471 80.941 H 0.0 **** 0.0
17785 H 90.51 75.885 80.993 H 0.0 **** 0.0
17786 C 73.148 51.027 19.02 C 0.0 **** 0.0
17787 H 72.137 51.022 18.612 H 0.0 **** 0.0
17788 H 73.378 50.044 19.432 H 0.0 **** 0.0
17789 H 73.218 51.777 19.807 H 0.0 **** 0.0
17790 H 73.858 51.265 18.228 H 0.0 **** 0.0
17791 C 72.7 54.488 46.217 C 0.0 **** 0.0
17792 H 72.333 54.395 45.195 H 0.0 **** 0.0
17793 H 73.787 54.406 46.221 H 0.0 **** 0.0
17794 H 72.273 53.694 46.83 H 0.0 **** 0.0
17795 H 72.407 55.457 46.621 H 0.0 **** 0.0
17796 C 87.784 7.767 34.442 C 0.0 **** 0.0
17797 H 87.697 8.124 33.416 H 0.0 **** 0.0
17798 H 86.806 7.804 34.924 H 0.0 **** 0.0
17799 H 88.483 8.4 34.989 H 0.0 **** 0.0
17800 H 88.149 6.74 34.44 H 0.0 **** 0.0
17801 C 33.261 94.392 19.238 C 0.0 **** 0.0
17802 H 33.717 94.614 20.203 H 0.0 **** 0.0
17803 H 32.192 94.225 19.373 H 0.0 **** 0.0
17804 H 33.719 93.498 18.817 H 0.0 **** 0.0
17805 H 33.415 95.233 18.562 H 0.0 **** 0.0
17806 C 87.284 22.406 78.263 C 0.0 **** 0.0
17807 H 87.415 22.69 77.219 H 0.0 **** 0.0
17808 H 86.292 21.976 78.4 H 0.0 **** 0.0
17809 H 87.389 23.287 78.896 H 0.0 **** 0.0
17810 H 88.04 21.67 78.537 H 0.0 **** 0.0
17811 C 36.637 57.551 75.237 C 0.0 **** 0.0
17812 H 36.619 58.587 74.898 H 0.0 **** 0.0
17813 H 37.075 57.503 76.234 H 0.0 **** 0.0
17814 H 37.234 56.954 74.547 H 0.0 **** 0.0
17815 H 35.62 57.162 75.267 H 0.0 **** 0.0
17816 C 84.087 56.099 68.874 C 0.0 **** 0.0
17817 H 84.075 56.146 69.963 H 0.0 **** 0.0
17818 H 84.507 55.144 68.556 H 0.0 **** 0.0
17819 H 84.696 56.913 68.482 H 0.0 **** 0.0
17820 H 83.068 56.192 68.496 H 0.0 **** 0.0
17821 C 31.324 12.094 15.918 C 0.0 **** 0.0
17822 H 32.057 12.001 15.117 H 0.0 **** 0.0
17823 H 31.376 11.215 16.561 H 0.0 **** 0.0
17824 H 30.325 12.172 15.489 H 0.0 **** 0.0
17825 H 31.539 12.987 16.505 H 0.0 **** 0.0
17826 C 26.447 31.185 23.12 C 0.0 **** 0.0
17827 H 26.412 31.383 24.192 H 0.0 **** 0.0
17828 H 26.304 32.118 22.574 H 0.0 **** 0.0
17829 H 25.657 30.483 22.854 H 0.0 **** 0.0
17830 H 27.416 30.758 22.862 H 0.0 **** 0.0
17831 C 82.809 71.708 5.018 C 0.0 **** 0.0
17832 H 82.695 70.63 5.131 H 0.0 **** 0.0
17833 H 81.846 72.149 4.759 H 0.0 **** 0.0
17834 H 83.529 71.916 4.227 H 0.0 **** 0.0
17835 H 83.165 72.136 5.955 H 0.0 **** 0.0
17836 C 18.563 64.897 17.149 C 0.0 **** 0.0
17837 H 18.573 64.937 16.06 H 0.0 **** 0.0
17838 H 17.536 64.787 17.499 H 0.0 **** 0.0
17839 H 18.988 65.816 17.551 H 0.0 **** 0.0
17840 H 19.154 64.045 17.486 H 0.0 **** 0.0
17841 C 75.578 62.392 79.77 C 0.0 **** 0.0
17842 H 76.238 63.207 80.068 H 0.0 **** 0.0
17843 H 75.977 61.911 78.876 H 0.0 **** 0.0
17844 H 74.585 62.789 79.557 H 0.0 **** 0.0
17845 H 75.513 61.663 80.577 H 0.0 **** 0.0
17846 C 95.254 22.366 77.422 C 0.0 **** 0.0
17847 H 95.977 22.971 76.875 H 0.0 **** 0.0
17848 H 94.286 22.416 76.923 H 0.0 **** 0.0
17849 H 95.159 22.745 78.439 H 0.0 **** 0.0
17850 H 95.595 21.331 77.451 H 0.0 **** 0.0
17851 C 28.507 67.379 63.495 C 0.0 **** 0.0
17852 H 29.44 67.63 64.001 H 0.0 **** 0.0
17853 H 27.722 68.062 63.823 H 0.0 **** 0.0
17854 H 28.225 66.356 63.741 H 0.0 **** 0.0
17855 H 28.643 67.471 62.418 H 0.0 **** 0.0
17856 C 73.02 6.738 76.269 C 0.0 **** 0.0
17857 H 72.212 6.96 75.572 H 0.0 **** 0.0
17858 H 73.025 7.481 77.067 H 0.0 **** 0.0
17859 H 73.973 6.765 75.741 H 0.0 **** 0.0
17860 H 72.87 5.746 76.696 H 0.0 **** 0.0
17861 C 31.478 17.989 74.552 C 0.0 **** 0.0
17862 H 31.506 17.774 73.483 H 0.0 **** 0.0
17863 H 30.639 18.651 74.767 H 0.0 **** 0.0
17864 H 32.409 18.473 74.849 H 0.0 **** 0.0
17865 H 31.359 17.058 75.106 H 0.0 **** 0.0
17866 C 76.796 10.225 70.478 C 0.0 **** 0.0
17867 H 75.812 10.004 70.064 H 0.0 **** 0.0
17868 H 76.717 10.341 71.559 H 0.0 **** 0.0
17869 H 77.175 11.148 70.04 H 0.0 **** 0.0
17870 H 77.478 9.407 70.249 H 0.0 **** 0.0
17871 C 56.347 21.978 53.13 C 0.0 **** 0.0
17872 H 55.765 22.306 53.991 H 0.0 **** 0.0
17873 H 57.41 22.081 53.351 H 0.0 **** 0.0
17874 H 56.094 22.592 52.266 H 0.0 **** 0.0
17875 H 56.12 20.935 52.914 H 0.0 **** 0.0
17876 C 14.503 77.684 45.156 C 0.0 **** 0.0
17877 H 14.807 77.716 46.202 H 0.0 **** 0.0
17878 H 14.278 78.693 44.812 H 0.0 **** 0.0
17879 H 13.615 77.059 45.055 H 0.0 **** 0.0
17880 H 15.311 77.266 44.556 H 0.0 **** 0.0
17881 C 72.825 27.83 38.853 C 0.0 **** 0.0
17882 H 72.435 27.13 39.592 H 0.0 **** 0.0
17883 H 72.304 28.784 38.948 H 0.0 **** 0.0
17884 H 72.667 27.428 37.853 H 0.0 **** 0.0
17885 H 73.891 27.979 39.022 H 0.0 **** 0.0
17886 C 66.018 10.688 98.091 C 0.0 **** 0.0
17887 H 66.544 11.61 97.843 H 0.0 **** 0.0
17888 H 66.626 10.095 98.774 H 0.0 **** 0.0
17889 H 65.835 10.119 97.179 H 0.0 **** 0.0
17890 H 65.067 10.929 98.566 H 0.0 **** 0.0
17891 C 55.626 22.434 28.979 C 0.0 **** 0.0
17892 H 55.615 22.23 27.909 H 0.0 **** 0.0
17893 H 55.845 21.514 29.522 H 0.0 **** 0.0
17894 H 54.652 22.815 29.286 H 0.0 **** 0.0
17895 H 56.393 23.177 29.2 H 0.0 **** 0.0
17896 C 65.485 73.358 84.369 C 0.0 **** 0.0
17897 H 65.617 72.95 85.371 H 0.0 **** 0.0
17898 H 66.459 73.475 83.893 H 0.0 **** 0.0
17899 H 64.994 74.329 84.434 H 0.0 **** 0.0
17900 H 64.871 72.679 83.778 H 0.0 **** 0.0
17901 C 45.732 58.175 37.203 C 0.0 **** 0.0
17902 H 46.015 57.765 36.233 H 0.0 **** 0.0
17903 H 46.349 59.048 37.421 H 0.0 **** 0.0
17904 H 45.884 57.42 37.975 H 0.0 **** 0.0
17905 H 44.683 58.468 37.182 H 0.0 **** 0.0
17906 C 98.001 93.366 11.992 C 0.0 **** 0.0
17907 H 97.316 93.984 11.409 H 0.0 **** 0.0
17908 H 99.002 93.794 11.947 H 0.0 **** 0.0
17909 H 98.018 92.357 11.581 H 0.0 **** 0.0
17910 H 97.665 93.331 13.028 H 0.0 **** 0.0
17911 C 30.857 29.795 61.558 C 0.0 **** 0.0
17912 H 30.593 30.786 61.926 H 0.0 **** 0.0
17913 H 31.89 29.8 61.209 H 0.0 **** 0.0
17914 H 30.197 29.525 60.734 H 0.0 **** 0.0
17915 H 30.749 29.068 62.363 H 0.0 **** 0.0
17916 C 76.395 20.623 40.784 C 0.0 **** 0.0
17917 H 76.203 21.642 40.45 H 0.0 **** 0.0
17918 H 77.444 20.377 40.615 H 0.0 **** 0.0
17919 H 75.765 19.932 40.223 H 0.0 **** 0.0
17920 H 76.169 20.54 41.847 H 0.0 **** 0.0
17921 C 51.622 41.337 70.345 C 0.0 **** 0.0
17922 H 51.49 42.002 71.198 H 0.0 **** 0.0
17923 H 50.886 41.578 69.578 H 0.0 **** 0.0
17924 H 51.489 40.304 70.665 H 0.0 **** 0.0
17925 H 52.626 41.464 69.938 H 0.0 **** 0.0
17926 C 96.916 32.819 89.68 C 0.0 **** 0.0
17927 H 97.116 33.869 89.89 H 0.0 **** 0.0
17928 H 97.605 32.465 88.913 H 0.0 **** 0.0
17929 H 95.891 32.708 89.327 H 0.0 **** 0.0
17930 H 97.053 32.234 90.589 H 0.0 **** 0.0
17931 C 46.558 86.782 79.368 C 0.0 **** 0.0
17932 H 46.439 85.747 79.689 H 0.0 **** 0.0
17933 H 47.529 86.903 78.888 H 0.0 **** 0.0
17934 H 46.496 87.44 80.234 H 0.0 **** 0.0
17935 H 45.768 87.036 78.661 H 0.0 **** 0.0
17936 C 91.678 84.622 3.75 C 0.0 **** 0.0
17937 H 91.105 84.454 2.839 H 0.0 **** 0.0
17938 H 91.98 83.663 4.172 H 0.0 **** 0.0
17939 H 91.063 85.16 4.472 H 0.0 **** 0.0
17940 H 92.565 85.212 3.518 H 0.0 **** 0.0
17941 C 61.568 25.374 37.715 C 0.0 **** 0.0
17942 H 61.475 24.346 37.364 H 0.0 **** 0.0
17943 H 60.968 26.029 37.083 H 0.0 **** 0.0
17944 H 62.613 25.68 37.669 H 0.0 **** 0.0
17945 H 61.215 25.439 38.745 H 0.0 **** 0.0
17946 C 77.563 8.983 24.283 C 0.0 **** 0.0
17947 H 77.647 9.211 23.221 H 0.0 **** 0.0
17948 H 77.833 9.864 24.866 H 0.0 **** 0.0
17949 H 78.235 8.161 24.532 H 0.0 **** 0.0
17950 H 76.537 8.696 24.512 H 0.0 **** 0.0
17951 C 95.185 10.247 72.14 C 0.0 **** 0.0
17952 H 94.262 10.369 72.707 H 0.0 **** 0.0
17953 H 95.749 9.405 72.542 H 0.0 **** 0.0
17954 H 95.782 11.156 72.22 H 0.0 **** 0.0
17955 H 94.946 10.06 71.093 H 0.0 **** 0.0
17956 C 50.047 29.335 42.609 C 0.0 **** 0.0
17957 H 50.058 28.577 41.826 H 0.0 **** 0.0
17958 H 50.969 29.272 43.188 H 0.0 **** 0.0
17959 H 49.193 29.167 43.265 H 0.0 **** 0.0
17960 H 49.969 30.324 42.156 H 0.0 **** 0.0
17961 C 7.414 90.985 52.557 C 0.0 **** 0.0
17962 H 7.732 91.373 51.589 H 0.0 **** 0.0
17963 H 7.256 91.814 53.247 H 0.0 **** 0.0
17964 H 8.184 90.323 52.953 H 0.0 **** 0.0
17965 H 6.484 90.429 52.437 H 0.0 **** 0.0
17966 C 92.761 55.64 51.199 C 0.0 **** 0.0
17967 H 92.614 54.755 51.819 H 0.0 **** 0.0
17968 H 92.807 56.524 51.835 H 0.0 **** 0.0
17969 H 91.928 55.736 50.502 H 0.0 **** 0.0
17970 H 93.692 55.542 50.642 H 0.0 **** 0.0
17971 C 42.358 98.155 14.565 C 0.0 **** 0.0
17972 H 42.154 97.813 15.58 H 0.0 **** 0.0
17973 H 41.45 98.577 14.134 H 0.0 **** 0.0
17974 H 42.692 97.313 13.959 H 0.0 **** 0.0
17975 H 43.137 98.917 14.589 H 0.0 **** 0.0
17976 C 19.387 45.601 33.885 C 0.0 **** 0.0
17977 H 19.416 45.776 32.809 H 0.0 **** 0.0
17978 H 20.303 45.098 34.195 H 0.0 **** 0.0
17979 H 18.528 44.975 34.128 H 0.0 **** 0.0
17980 H 19.301 46.555 34.406 H 0.0 **** 0.0
17981 C 28.539 43.358 86.193 C 0.0 **** 0.0
17982 H 28.977 43.119 85.224 H 0.0 **** 0.0
17983 H 27.975 44.287 86.117 H 0.0 **** 0.0
17984 H 29.332 43.473 86.932 H 0.0 **** 0.0
17985 H 27.872 42.551 86.499 H 0.0 **** 0.0
17986 C 0.785 14.938 51.616 C 0.0 **** 0.0
17987 H 1.571 14.922 52.371 H 0.0 **** 0.0
17988 H 0.129 14.079 51.756 H 0.0 **** 0.0
17989 H 1.233 14.896 50.623 H 0.0 **** 0.0
17990 H 0.206 15.857 51.715 H 0.0 **** 0.0
17991 C 94.345 58.161 13.294 C 0.0 **** 0.0
17992 H 94.833 59.121 13.127 H 0.0 **** 0.0
17993 H 93.474 58.078 12.644 H 0.0 **** 0.0
17994 H 94.03 58.09 14.335 H 0.0 **** 0.0
17995 H 95.044 57.354 13.071 H 0.0 **** 0.0
17996 C 56.146 39.45 68.46 C 0.0 **** 0.0
17997 H 55.599 38.912 69.234 H 0.0 **** 0.0
17998 H 55.821 39.105 67.478 H 0.0 **** 0.0
17999 H 57.214 39.264 68.575 H 0.0 **** 0.0
18000 H 55.951 40.518 68.553 H 0.0 **** 0.0
18001 C 94.109 28.571 68.819 C 0.0 **** 0.0
18002 H 93.33 29.33 68.75 H 0.0 **** 0.0
18003 H 94.985 28.897 68.258 H 0.0 **** 0.0
18004 H 93.74 27.633 68.403 H 0.0 **** 0.0
18005 H 94.38 28.423 69.864 H 0.0 **** 0.0
18006 C 85.319 68.691 11.097 C 0.0 **** 0.0
18007 H 84.458 69.217 10.686 H 0.0 **** 0.0
18008 H 85.525 67.806 10.495 H 0.0 **** 0.0
18009 H 85.105 68.391 12.123 H 0.0 **** 0.0
18010 H 86.187 69.349 11.085 H 0.0 **** 0.0
18011 C 84.368 91.607 92.218 C 0.0 **** 0.0
18012 H 84.279 90.945 91.356 H 0.0 **** 0.0
18013 H 85.418 91.698 92.499 H 0.0 **** 0.0
18014 H 83.803 91.192 93.053 H 0.0 **** 0.0
18015 H 83.973 92.59 91.964 H 0.0 **** 0.0
18016 C 30.623 79.617 57.579 C 0.0 **** 0.0
18017 H 30.813 80.092 58.541 H 0.0 **** 0.0
18018 H 29.642 79.92 57.212 H 0.0 **** 0.0
18019 H 30.648 78.533 57.697 H 0.0 **** 0.0
18020 H 31.389 79.922 56.866 H 0.0 **** 0.0
18021 C 83.539 34.393 38.69 C 0.0 **** 0.0
18022 H 84.327 34.7 39.378 H 0.0 **** 0.0
18023 H 83.984 34.081 37.745 H 0.0 **** 0.0
18024 H 82.863 35.229 38.515 H 0.0 **** 0.0
18025 H 82.984 33.561 39.123 H 0.0 **** 0.0
18026 C 25.117 82.407 14.825 C 0.0 **** 0.0
18027 H 24.335 83.02 14.375 H 0.0 **** 0.0
18028 H 25.587 81.796 14.054 H 0.0 **** 0.0
18029 H 24.679 81.761 15.585 H 0.0 **** 0.0
18030 H 25.865 83.053 15.284 H 0.0 **** 0.0
18031 C 55.609 21.015 36.925 C 0.0 **** 0.0
18032 H 55.595 21.009 35.835 H 0.0 **** 0.0
18033 H 56.436 20.399 37.281 H 0.0 **** 0.0
18034 H 54.669 20.614 37.303 H 0.0 **** 0.0
18035 H 55.738 22.037 37.281 H 0.0 **** 0.0
18036 C 19.074 96.747 42.509 C 0.0 **** 0.0
18037 H 18.97 96.82 41.426 H 0.0 **** 0.0
18038 H 20.033 96.29 42.752 H 0.0 **** 0.0
18039 H 18.267 96.133 42.91 H 0.0 **** 0.0
18040 H 19.023 97.744 42.947 H 0.0 **** 0.0
18041 C 96.667 24.571 29.56 C 0.0 **** 0.0
18042 H 97.626 24.392 30.046 H 0.0 **** 0.0
18043 H 96.353 23.669 29.034 H 0.0 **** 0.0
18044 H 96.767 25.39 28.848 H 0.0 **** 0.0
18045 H 95.922 24.832 30.311 H 0.0 **** 0.0
18046 C 35.588 69.379 8.026 C 0.0 **** 0.0
18047 H 35.747 68.736 7.16 H 0.0 **** 0.0
18048 H 36.0 70.368 7.823 H 0.0 **** 0.0
18049 H 36.085 68.949 8.895 H 0.0 **** 0.0
18050 H 34.519 69.464 8.223 H 0.0 **** 0.0
18051 C 36.006 79.566 66.605 C 0.0 **** 0.0
18052 H 36.42 79.225 67.554 H 0.0 **** 0.0
18053 H 35.984 78.735 65.9 H 0.0 **** 0.0
18054 H 36.628 80.366 66.205 H 0.0 **** 0.0
18055 H 34.994 79.937 66.763 H 0.0 **** 0.0
18056 C 67.472 3.379 56.42 C 0.0 **** 0.0
18057 H 67.389 3.451 55.335 H 0.0 **** 0.0
18058 H 66.831 2.573 56.779 H 0.0 **** 0.0
18059 H 67.16 4.32 56.872 H 0.0 **** 0.0
18060 H 68.506 3.17 56.692 H 0.0 **** 0.0
18061 C 61.912 29.224 69.672 C 0.0 **** 0.0
18062 H 61.826 29.541 70.711 H 0.0 **** 0.0
18063 H 61.616 30.044 69.017 H 0.0 **** 0.0
18064 H 61.26 28.367 69.499 H 0.0 **** 0.0
18065 H 62.944 28.944 69.461 H 0.0 **** 0.0
18066 C 22.597 23.625 17.408 C 0.0 **** 0.0
18067 H 22.167 23.75 18.402 H 0.0 **** 0.0
18068 H 23.573 23.145 17.493 H 0.0 **** 0.0
18069 H 22.712 24.601 16.937 H 0.0 **** 0.0
18070 H 21.938 23.004 16.802 H 0.0 **** 0.0
18071 C 94.645 15.546 1.13 C 0.0 **** 0.0
18072 H 95.375 16.311 0.868 H 0.0 **** 0.0
18073 H 93.716 15.731 0.592 H 0.0 **** 0.0
18074 H 94.457 15.577 2.203 H 0.0 **** 0.0
18075 H 95.034 14.565 0.858 H 0.0 **** 0.0
18076 C 22.325 6.144 93.842 C 0.0 **** 0.0
18077 H 22.934 6.667 93.105 H 0.0 **** 0.0
18078 H 22.94 5.415 94.37 H 0.0 **** 0.0
18079 H 21.505 5.632 93.338 H 0.0 **** 0.0
18080 H 21.921 6.863 94.555 H 0.0 **** 0.0
18081 C 7.727 37.504 43.904 C 0.0 **** 0.0
18082 H 8.174 36.548 43.632 H 0.0 **** 0.0
18083 H 8.102 37.815 44.879 H 0.0 **** 0.0
18084 H 6.643 37.398 43.947 H 0.0 **** 0.0
18085 H 7.99 38.253 43.157 H 0.0 **** 0.0
18086 C 61.314 75.866 75.352 C 0.0 **** 0.0
18087 H 62.394 75.976 75.254 H 0.0 **** 0.0
18088 H 60.928 75.302 74.503 H 0.0 **** 0.0
18089 H 60.849 76.852 75.376 H 0.0 **** 0.0
18090 H 61.086 75.335 76.276 H 0.0 **** 0.0
18091 C 84.007 26.055 84.843 C 0.0 **** 0.0
18092 H 84.6 26.516 84.053 H 0.0 **** 0.0
18093 H 83.229 26.749 85.164 H 0.0 **** 0.0
18094 H 84.652 25.816 85.689 H 0.0 **** 0.0
18095 H 83.547 25.142 84.466 H 0.0 **** 0.0
18096 C 72.835 79.841 23.001 C 0.0 **** 0.0
18097 H 72.064 79.711 22.242 H 0.0 **** 0.0
18098 H 72.643 79.164 23.834 H 0.0 **** 0.0
18099 H 72.824 80.87 23.358 H 0.0 **** 0.0
18100 H 73.811 79.617 22.568 H 0.0 **** 0.0
18101 C 27.796 81.334 19.131 C 0.0 **** 0.0
18102 H 28.699 80.759 19.335 H 0.0 **** 0.0
18103 H 27.357 81.668 20.071 H 0.0 **** 0.0
18104 H 27.08 80.708 18.597 H 0.0 **** 0.0
18105 H 28.047 82.201 18.519 H 0.0 **** 0.0
18106 C 71.346 98.015 23.001 C 0.0 **** 0.0
18107 H 71.667 97.423 23.858 H 0.0 **** 0.0
18108 H 70.261 98.123 23.021 H 0.0 **** 0.0
18109 H 71.645 97.514 22.081 H 0.0 **** 0.0
18110 H 71.81 99.0 23.046 H 0.0 **** 0.0
18111 C 88.731 97.117 93.416 C 0.0 **** 0.0
18112 H 89.501 97.888 93.444 H 0.0 **** 0.0
18113 H 89.173 96.175 93.091 H 0.0 **** 0.0
18114 H 87.948 97.411 92.717 H 0.0 **** 0.0
18115 H 88.303 96.995 94.411 H 0.0 **** 0.0
18116 C 71.484 82.749 66.901 C 0.0 **** 0.0
18117 H 71.552 81.683 67.113 H 0.0 **** 0.0
18118 H 70.687 83.188 67.502 H 0.0 **** 0.0
18119 H 71.264 82.896 65.843 H 0.0 **** 0.0
18120 H 72.431 83.23 67.145 H 0.0 **** 0.0
18121 C 76.968 39.041 57.743 C 0.0 **** 0.0
18122 H 77.305 39.355 58.731 H 0.0 **** 0.0
18123 H 76.449 38.086 57.822 H 0.0 **** 0.0
18124 H 77.829 38.935 57.083 H 0.0 **** 0.0
18125 H 76.289 39.791 57.336 H 0.0 **** 0.0
18126 C 97.431 44.787 24.525 C 0.0 **** 0.0
18127 H 98.039 44.625 23.635 H 0.0 **** 0.0
18128 H 98.039 45.251 25.301 H 0.0 **** 0.0
18129 H 97.051 43.83 24.884 H 0.0 **** 0.0
18130 H 96.594 45.44 24.278 H 0.0 **** 0.0
18131 C 75.26 62.869 46.825 C 0.0 **** 0.0
18132 H 74.284 62.76 47.298 H 0.0 **** 0.0
18133 H 76.04 62.809 47.584 H 0.0 **** 0.0
18134 H 75.314 63.835 46.323 H 0.0 **** 0.0
18135 H 75.4 62.071 46.095 H 0.0 **** 0.0
18136 C 5.993 60.502 38.895 C 0.0 **** 0.0
18137 H 6.037 61.531 38.54 H 0.0 **** 0.0
18138 H 6.977 60.042 38.802 H 0.0 **** 0.0
18139 H 5.272 59.942 38.299 H 0.0 **** 0.0
18140 H 5.684 60.492 39.941 H 0.0 **** 0.0
18141 C 58.318 40.691 74.976 C 0.0 **** 0.0
18142 H 58.125 40.806 76.043 H 0.0 **** 0.0
18143 H 58.958 41.504 74.633 H 0.0 **** 0.0
18144 H 57.374 40.717 74.432 H 0.0 **** 0.0
18145 H 58.814 39.737 74.798 H 0.0 **** 0.0
18146 C 10.62 7.959 38.645 C 0.0 **** 0.0
18147 H 10.484 7.658 37.606 H 0.0 **** 0.0
18148 H 11.681 8.112 38.843 H 0.0 **** 0.0
18149 H 10.236 7.178 39.301 H 0.0 **** 0.0
18150 H 10.078 8.887 38.828 H 0.0 **** 0.0
18151 C 96.113 80.211 27.618 C 0.0 **** 0.0
18152 H 96.072 80.095 26.535 H 0.0 **** 0.0
18153 H 96.864 80.959 27.875 H 0.0 **** 0.0
18154 H 96.377 79.258 28.075 H 0.0 **** 0.0
18155 H 95.138 80.533 27.986 H 0.0 **** 0.0
18156 C 60.474 28.615 42.635 C 0.0 **** 0.0
18157 H 60.388 28.578 43.721 H 0.0 **** 0.0
18158 H 60.04 27.712 42.206 H 0.0 **** 0.0
18159 H 61.526 28.681 42.356 H 0.0 **** 0.0
18160 H 59.942 29.489 42.258 H 0.0 **** 0.0
18161 C 85.472 14.083 33.207 C 0.0 **** 0.0
18162 H 85.975 13.419 32.503 H 0.0 **** 0.0
18163 H 84.455 14.274 32.862 H 0.0 **** 0.0
18164 H 86.017 15.024 33.271 H 0.0 **** 0.0
18165 H 85.441 13.613 34.19 H 0.0 **** 0.0
18166 C 80.767 77.317 88.566 C 0.0 **** 0.0
18167 H 81.433 76.476 88.76 H 0.0 **** 0.0
18168 H 80.435 77.743 89.513 H 0.0 **** 0.0
18169 H 79.903 76.972 87.999 H 0.0 **** 0.0
18170 H 81.299 78.076 87.992 H 0.0 **** 0.0
18171 C 88.048 9.541 49.246 C 0.0 **** 0.0
18172 H 88.889 9.945 48.683 H 0.0 **** 0.0
18173 H 87.65 10.311 49.907 H 0.0 **** 0.0
18174 H 88.384 8.69 49.84 H 0.0 **** 0.0
18175 H 87.271 9.216 48.555 H 0.0 **** 0.0
18176 C 47.593 52.315 19.281 C 0.0 **** 0.0
18177 H 47.638 52.459 20.36 H 0.0 **** 0.0
18178 H 46.553 52.334 18.954 H 0.0 **** 0.0
18179 H 48.037 51.353 19.024 H 0.0 **** 0.0
18180 H 48.145 53.114 18.785 H 0.0 **** 0.0
18181 C 89.351 64.662 57.155 C 0.0 **** 0.0
18182 H 90.286 64.336 57.61 H 0.0 **** 0.0
18183 H 89.556 65.436 56.416 H 0.0 **** 0.0
18184 H 88.692 65.061 57.927 H 0.0 **** 0.0
18185 H 88.869 63.813 56.669 H 0.0 **** 0.0
18186 C 4.077 31.92 21.264 C 0.0 **** 0.0
18187 H 4.852 31.39 21.817 H 0.0 **** 0.0
18188 H 3.179 31.994 21.878 H 0.0 **** 0.0
18189 H 3.848 31.375 20.348 H 0.0 **** 0.0
18190 H 4.43 32.92 21.013 H 0.0 **** 0.0
18191 C 56.225 50.729 45.065 C 0.0 **** 0.0
18192 H 56.135 50.716 46.151 H 0.0 **** 0.0
18193 H 55.941 51.711 44.688 H 0.0 **** 0.0
18194 H 55.569 49.971 44.637 H 0.0 **** 0.0
18195 H 57.257 50.516 44.784 H 0.0 **** 0.0
18196 C 96.588 79.112 22.048 C 0.0 **** 0.0
18197 H 95.577 79.024 22.447 H 0.0 **** 0.0
18198 H 96.548 79.562 21.056 H 0.0 **** 0.0
18199 H 97.039 78.122 21.981 H 0.0 **** 0.0
18200 H 97.186 79.74 22.709 H 0.0 **** 0.0
18201 C 5.158 6.29 61.735 C 0.0 **** 0.0
18202 H 4.461 6.653 60.979 H 0.0 **** 0.0
18203 H 6.112 6.805 61.625 H 0.0 **** 0.0
18204 H 5.306 5.218 61.607 H 0.0 **** 0.0
18205 H 4.751 6.485 62.727 H 0.0 **** 0.0
18206 C 91.7 72.613 76.538 C 0.0 **** 0.0
18207 H 92.644 72.622 75.992 H 0.0 **** 0.0
18208 H 91.688 73.433 77.257 H 0.0 **** 0.0
18209 H 91.596 71.665 77.066 H 0.0 **** 0.0
18210 H 90.874 72.731 75.837 H 0.0 **** 0.0
18211 C 7.466 4.146 40.745 C 0.0 **** 0.0
18212 H 7.776 3.264 41.305 H 0.0 **** 0.0
18213 H 6.611 4.609 41.238 H 0.0 **** 0.0
18214 H 7.188 3.853 39.732 H 0.0 **** 0.0
18215 H 8.291 4.858 40.703 H 0.0 **** 0.0
18216 C 40.662 59.124 94.1 C 0.0 **** 0.0
18217 H 39.641 59.02 93.732 H 0.0 **** 0.0
18218 H 40.897 60.181 94.224 H 0.0 **** 0.0
18219 H 41.352 58.68 93.383 H 0.0 **** 0.0
18220 H 40.756 58.614 95.059 H 0.0 **** 0.0
18221 C 73.415 69.813 2.942 C 0.0 **** 0.0
18222 H 74.172 69.592 2.189 H 0.0 **** 0.0
18223 H 73.152 68.897 3.471 H 0.0 **** 0.0
18224 H 72.528 70.22 2.456 H 0.0 **** 0.0
18225 H 73.809 70.542 3.65 H 0.0 **** 0.0
18226 C 84.99 11.529 12.262 C 0.0 **** 0.0
18227 H 85.331 10.502 12.394 H 0.0 **** 0.0
18228 H 84.257 11.568 11.457 H 0.0 **** 0.0
18229 H 85.84 12.163 12.011 H 0.0 **** 0.0
18230 H 84.534 11.882 13.187 H 0.0 **** 0.0
18231 C 18.705 89.072 85.055 C 0.0 **** 0.0
18232 H 18.104 89.408 84.21 H 0.0 **** 0.0
18233 H 18.36 88.09 85.379 H 0.0 **** 0.0
18234 H 18.605 89.782 85.877 H 0.0 **** 0.0
18235 H 19.751 89.01 84.755 H 0.0 **** 0.0
18236 C 83.614 71.11 78.541 C 0.0 **** 0.0
18237 H 82.999 71.725 79.199 H 0.0 **** 0.0
18238 H 83.738 71.615 77.583 H 0.0 **** 0.0
18239 H 83.129 70.147 78.385 H 0.0 **** 0.0
18240 H 84.591 70.955 78.999 H 0.0 **** 0.0
18241 C 72.512 11.377 28.5 C 0.0 **** 0.0
18242 H 71.793 10.656 28.112 H 0.0 **** 0.0
18243 H 72.04 11.979 29.276 H 0.0 **** 0.0
18244 H 72.848 12.026 27.691 H 0.0 **** 0.0
18245 H 73.367 10.847 28.92 H 0.0 **** 0.0
18246 C 48.137 6.059 27.19 C 0.0 **** 0.0
18247 H 48.815 6.387 26.402 H 0.0 **** 0.0
18248 H 48.716 5.716 28.048 H 0.0 **** 0.0
18249 H 47.518 5.242 26.819 H 0.0 **** 0.0
18250 H 47.5 6.89 27.49 H 0.0 **** 0.0
18251 C 36.728 90.542 94.407 C 0.0 **** 0.0
18252 H 36.159 90.086 93.597 H 0.0 **** 0.0
18253 H 37.794 90.46 94.192 H 0.0 **** 0.0
18254 H 36.504 90.028 95.342 H 0.0 **** 0.0
18255 H 36.454 91.594 94.496 H 0.0 **** 0.0
18256 C 78.327 30.762 90.352 C 0.0 **** 0.0
18257 H 79.194 30.376 90.888 H 0.0 **** 0.0
18258 H 77.976 31.672 90.839 H 0.0 **** 0.0
18259 H 77.533 30.015 90.36 H 0.0 **** 0.0
18260 H 78.607 30.984 89.323 H 0.0 **** 0.0
18261 C 17.937 0.692 7.791 C 0.0 **** 0.0
18262 H 18.89 0.388 8.223 H 0.0 **** 0.0
18263 H 17.168 0.684 8.563 H 0.0 **** 0.0
18264 H 17.661 0.0 6.995 H 0.0 **** 0.0
18265 H 18.029 1.698 7.381 H 0.0 **** 0.0
18266 C 57.73 13.099 87.885 C 0.0 **** 0.0
18267 H 58.41 13.381 87.081 H 0.0 **** 0.0
18268 H 56.701 13.186 87.536 H 0.0 **** 0.0
18269 H 57.882 13.76 88.738 H 0.0 **** 0.0
18270 H 57.927 12.069 88.183 H 0.0 **** 0.0
18271 C 40.953 1.544 83.441 C 0.0 **** 0.0
18272 H 42.02 1.651 83.243 H 0.0 **** 0.0
18273 H 40.69 0.486 83.449 H 0.0 **** 0.0
18274 H 40.387 2.054 82.661 H 0.0 **** 0.0
18275 H 40.718 1.985 84.409 H 0.0 **** 0.0
18276 C 89.382 15.215 57.39 C 0.0 **** 0.0
18277 H 90.278 15.805 57.2 H 0.0 **** 0.0
18278 H 89.625 14.389 58.058 H 0.0 **** 0.0
18279 H 89.0 14.821 56.448 H 0.0 **** 0.0
18280 H 88.623 15.846 57.853 H 0.0 **** 0.0
18281 C 35.483 62.807 30.677 C 0.0 **** 0.0
18282 H 36.242 63.426 31.155 H 0.0 **** 0.0
18283 H 35.257 63.208 29.689 H 0.0 **** 0.0
18284 H 34.578 62.807 31.285 H 0.0 **** 0.0
18285 H 35.855 61.787 30.58 H 0.0 **** 0.0
18286 C 21.418 62.385 28.728 C 0.0 **** 0.0
18287 H 20.778 62.64 29.573 H 0.0 **** 0.0
18288 H 21.51 61.301 28.658 H 0.0 **** 0.0
18289 H 22.404 62.825 28.873 H 0.0 **** 0.0
18290 H 20.978 62.773 27.809 H 0.0 **** 0.0
18291 C 1.202 98.016 30.527 C 0.0 **** 0.0
18292 H 1.171 99.0 30.06 H 0.0 **** 0.0
18293 H 1.141 97.247 29.756 H 0.0 **** 0.0
18294 H 0.361 97.912 31.212 H 0.0 **** 0.0
18295 H 2.136 97.905 31.078 H 0.0 **** 0.0
18296 C 18.918 81.582 78.978 C 0.0 **** 0.0
18297 H 19.002 82.664 78.871 H 0.0 **** 0.0
18298 H 18.1 81.348 79.66 H 0.0 **** 0.0
18299 H 19.851 81.183 79.377 H 0.0 **** 0.0
18300 H 18.719 81.135 78.004 H 0.0 **** 0.0
18301 C 78.178 57.421 40.31 C 0.0 **** 0.0
18302 H 77.968 56.429 40.71 H 0.0 **** 0.0
18303 H 78.956 57.349 39.55 H 0.0 **** 0.0
18304 H 78.515 58.074 41.115 H 0.0 **** 0.0
18305 H 77.272 57.832 39.864 H 0.0 **** 0.0
18306 C 57.201 75.498 10.243 C 0.0 **** 0.0
18307 H 57.789 75.135 9.4 H 0.0 **** 0.0
18308 H 57.683 75.204 11.175 H 0.0 **** 0.0
18309 H 56.2 75.069 10.199 H 0.0 **** 0.0
18310 H 57.133 76.585 10.196 H 0.0 **** 0.0
18311 C 60.871 55.242 86.874 C 0.0 **** 0.0
18312 H 60.994 55.245 85.791 H 0.0 **** 0.0
18313 H 60.528 54.259 87.198 H 0.0 **** 0.0
18314 H 60.135 55.995 87.158 H 0.0 **** 0.0
18315 H 61.825 55.469 87.349 H 0.0 **** 0.0
18316 C 61.039 59.733 76.732 C 0.0 **** 0.0
18317 H 62.064 59.817 77.094 H 0.0 **** 0.0
18318 H 60.379 60.323 77.368 H 0.0 **** 0.0
18319 H 60.73 58.688 76.757 H 0.0 **** 0.0
18320 H 60.985 60.103 75.708 H 0.0 **** 0.0
18321 C 90.236 63.792 38.521 C 0.0 **** 0.0
18322 H 91.081 64.221 37.982 H 0.0 **** 0.0
18323 H 89.762 64.564 39.127 H 0.0 **** 0.0
18324 H 90.589 62.988 39.167 H 0.0 **** 0.0
18325 H 89.514 63.394 37.808 H 0.0 **** 0.0
18326 C 50.667 15.55 89.041 C 0.0 **** 0.0
18327 H 50.224 16.42 88.558 H 0.0 **** 0.0
18328 H 50.389 14.649 88.492 H 0.0 **** 0.0
18329 H 50.303 15.478 90.066 H 0.0 **** 0.0
18330 H 51.752 15.651 89.047 H 0.0 **** 0.0
18331 C 63.775 8.207 47.666 C 0.0 **** 0.0
18332 H 63.702 8.638 48.664 H 0.0 **** 0.0
18333 H 64.382 7.302 47.705 H 0.0 **** 0.0
18334 H 64.239 8.927 46.991 H 0.0 **** 0.0
18335 H 62.777 7.96 47.303 H 0.0 **** 0.0
18336 C 66.135 63.201 61.408 C 0.0 **** 0.0
18337 H 66.027 62.834 60.387 H 0.0 **** 0.0
18338 H 66.992 62.719 61.878 H 0.0 **** 0.0
18339 H 65.232 62.969 61.973 H 0.0 **** 0.0
18340 H 66.287 64.28 61.391 H 0.0 **** 0.0
18341 C 61.571 84.299 85.635 C 0.0 **** 0.0
18342 H 60.511 84.141 85.434 H 0.0 **** 0.0
18343 H 61.81 85.355 85.511 H 0.0 **** 0.0
18344 H 62.165 83.707 84.939 H 0.0 **** 0.0
18345 H 61.796 83.992 86.656 H 0.0 **** 0.0
18346 C 63.447 48.127 11.478 C 0.0 **** 0.0
18347 H 62.954 47.386 10.848 H 0.0 **** 0.0
18348 H 63.113 48.006 12.509 H 0.0 **** 0.0
18349 H 63.192 49.127 11.128 H 0.0 **** 0.0
18350 H 64.526 47.987 11.426 H 0.0 **** 0.0
18351 C 75.584 83.566 77.595 C 0.0 **** 0.0
18352 H 75.936 84.596 77.649 H 0.0 **** 0.0
18353 H 75.054 83.412 76.655 H 0.0 **** 0.0
18354 H 74.911 83.368 78.429 H 0.0 **** 0.0
18355 H 76.437 82.889 77.647 H 0.0 **** 0.0
18356 C 65.576 10.193 62.957 C 0.0 **** 0.0
18357 H 65.537 10.196 61.867 H 0.0 **** 0.0
18358 H 65.63 11.219 63.321 H 0.0 **** 0.0
18359 H 66.458 9.643 63.287 H 0.0 **** 0.0
18360 H 64.68 9.714 63.351 H 0.0 **** 0.0
18361 C 64.399 20.433 89.317 C 0.0 **** 0.0
18362 H 65.027 19.795 88.695 H 0.0 **** 0.0
18363 H 64.326 20.007 90.318 H 0.0 **** 0.0
18364 H 63.403 20.501 88.878 H 0.0 **** 0.0
18365 H 64.839 21.428 89.376 H 0.0 **** 0.0
18366 C 57.607 47.348 97.247 C 0.0 **** 0.0
18367 H 56.637 47.763 97.523 H 0.0 **** 0.0
18368 H 58.354 48.142 97.248 H 0.0 **** 0.0
18369 H 57.544 46.909 96.251 H 0.0 **** 0.0
18370 H 57.891 46.58 97.966 H 0.0 **** 0.0
18371 C 68.123 89.57 8.572 C 0.0 **** 0.0
18372 H 68.383 90.609 8.369 H 0.0 **** 0.0
18373 H 67.063 89.415 8.371 H 0.0 **** 0.0
18374 H 68.333 89.34 9.616 H 0.0 **** 0.0
18375 H 68.714 88.916 7.93 H 0.0 **** 0.0
18376 C 61.948 90.535 94.279 C 0.0 **** 0.0
18377 H 62.716 89.976 94.813 H 0.0 **** 0.0
18378 H 62.315 90.801 93.288 H 0.0 **** 0.0
18379 H 61.707 91.442 94.834 H 0.0 **** 0.0
18380 H 61.053 89.92 94.182 H 0.0 **** 0.0
18381 C 48.027 32.872 16.924 C 0.0 **** 0.0
18382 H 47.048 32.413 17.066 H 0.0 **** 0.0
18383 H 48.716 32.496 17.68 H 0.0 **** 0.0
18384 H 47.937 33.954 17.019 H 0.0 **** 0.0
18385 H 48.404 32.624 15.932 H 0.0 **** 0.0
18386 C 59.633 75.665 86.263 C 0.0 **** 0.0
18387 H 60.705 75.836 86.363 H 0.0 **** 0.0
18388 H 59.341 74.817 86.882 H 0.0 **** 0.0
18389 H 59.395 75.454 85.22 H 0.0 **** 0.0
18390 H 59.093 76.555 86.585 H 0.0 **** 0.0
18391 C 25.434 48.001 81.48 C 0.0 **** 0.0
18392 H 26.211 47.745 80.759 H 0.0 **** 0.0
18393 H 25.688 48.943 81.967 H 0.0 **** 0.0
18394 H 25.358 47.213 82.228 H 0.0 **** 0.0
18395 H 24.48 48.105 80.963 H 0.0 **** 0.0
18396 C 70.319 55.968 76.938 C 0.0 **** 0.0
18397 H 69.247 55.808 77.055 H 0.0 **** 0.0
18398 H 70.78 56.071 77.921 H 0.0 **** 0.0
18399 H 70.49 56.875 76.359 H 0.0 **** 0.0
18400 H 70.758 55.117 76.418 H 0.0 **** 0.0
18401 C 39.799 78.796 90.42 C 0.0 **** 0.0
18402 H 38.812 78.673 89.973 H 0.0 **** 0.0
18403 H 39.755 78.53 91.476 H 0.0 **** 0.0
18404 H 40.117 79.833 90.319 H 0.0 **** 0.0
18405 H 40.511 78.146 89.911 H 0.0 **** 0.0
18406 C 34.886 5.261 89.121 C 0.0 **** 0.0
18407 H 34.856 5.193 88.034 H 0.0 **** 0.0
18408 H 34.223 6.06 89.453 H 0.0 **** 0.0
18409 H 35.905 5.476 89.443 H 0.0 **** 0.0
18410 H 34.561 4.315 89.553 H 0.0 **** 0.0
18411 C 75.01 51.283 29.288 C 0.0 **** 0.0
18412 H 75.026 51.248 28.199 H 0.0 **** 0.0
18413 H 75.339 50.323 29.687 H 0.0 **** 0.0
18414 H 73.997 51.491 29.63 H 0.0 **** 0.0
18415 H 75.68 52.07 29.635 H 0.0 **** 0.0
18416 C 66.422 29.788 17.358 C 0.0 **** 0.0
18417 H 66.987 30.001 18.265 H 0.0 **** 0.0
18418 H 66.687 30.511 16.587 H 0.0 **** 0.0
18419 H 65.355 29.857 17.571 H 0.0 **** 0.0
18420 H 66.658 28.782 17.011 H 0.0 **** 0.0
18421 C 9.332 72.349 9.773 C 0.0 **** 0.0
18422 H 8.72 73.103 10.267 H 0.0 **** 0.0
18423 H 10.004 71.893 10.5 H 0.0 **** 0.0
18424 H 9.917 72.818 8.981 H 0.0 **** 0.0
18425 H 8.688 71.582 9.343 H 0.0 **** 0.0
18426 C 56.098 77.268 33.506 C 0.0 **** 0.0
18427 H 56.075 76.344 32.929 H 0.0 **** 0.0
18428 H 56.395 78.094 32.859 H 0.0 **** 0.0
18429 H 56.816 77.169 34.321 H 0.0 **** 0.0
18430 H 55.108 77.465 33.916 H 0.0 **** 0.0
18431 C 31.373 64.869 26.176 C 0.0 **** 0.0
18432 H 32.088 64.264 26.736 H 0.0 **** 0.0
18433 H 31.207 65.811 26.699 H 0.0 **** 0.0
18434 H 30.43 64.329 26.09 H 0.0 **** 0.0
18435 H 31.769 65.07 25.181 H 0.0 **** 0.0
18436 C 85.743 85.995 98.247 C 0.0 **** 0.0
18437 H 86.363 86.674 98.833 H 0.0 **** 0.0
18438 H 84.699 86.301 98.323 H 0.0 **** 0.0
18439 H 85.854 84.981 98.629 H 0.0 **** 0.0
18440 H 86.056 86.027 97.203 H 0.0 **** 0.0
18441 C 93.83 38.456 23.617 C 0.0 **** 0.0
18442 H 94.071 38.106 22.613 H 0.0 **** 0.0
18443 H 93.763 39.545 23.614 H 0.0 **** 0.0
18444 H 94.61 38.141 24.309 H 0.0 **** 0.0
18445 H 92.875 38.034 23.929 H 0.0 **** 0.0
18446 C 95.558 64.689 5.878 C 0.0 **** 0.0
18447 H 95.572 64.604 4.792 H 0.0 **** 0.0
18448 H 95.569 63.693 6.321 H 0.0 **** 0.0
18449 H 94.656 65.216 6.19 H 0.0 **** 0.0
18450 H 96.436 65.244 6.21 H 0.0 **** 0.0
18451 C 68.587 1.659 47.519 C 0.0 **** 0.0
18452 H 68.288 2.343 46.725 H 0.0 **** 0.0
18453 H 69.334 0.963 47.136 H 0.0 **** 0.0
18454 H 67.716 1.103 47.866 H 0.0 **** 0.0
18455 H 69.009 2.227 48.348 H 0.0 **** 0.0
18456 C 66.535 32.02 20.153 C 0.0 **** 0.0
18457 H 66.382 32.716 20.977 H 0.0 **** 0.0
18458 H 66.501 32.563 19.208 H 0.0 **** 0.0
18459 H 65.75 31.264 20.166 H 0.0 **** 0.0
18460 H 67.506 31.537 20.26 H 0.0 **** 0.0
18461 C 65.675 96.634 33.152 C 0.0 **** 0.0
18462 H 65.82 96.695 32.074 H 0.0 **** 0.0
18463 H 65.182 97.541 33.504 H 0.0 **** 0.0
18464 H 66.643 96.533 33.643 H 0.0 **** 0.0
18465 H 65.056 95.768 33.387 H 0.0 **** 0.0
18466 C 17.124 22.716 24.466 C 0.0 **** 0.0
18467 H 17.855 23.473 24.18 H 0.0 **** 0.0
18468 H 16.264 22.771 23.798 H 0.0 **** 0.0
18469 H 16.8 22.895 25.492 H 0.0 **** 0.0
18470 H 17.578 21.728 24.396 H 0.0 **** 0.0
18471 C 56.466 30.5 75.566 C 0.0 **** 0.0
18472 H 56.495 30.193 76.612 H 0.0 **** 0.0
18473 H 55.793 31.351 75.457 H 0.0 **** 0.0
18474 H 56.108 29.672 74.955 H 0.0 **** 0.0
18475 H 57.467 30.784 75.243 H 0.0 **** 0.0
18476 C 62.347 97.21 82.194 C 0.0 **** 0.0
18477 H 62.297 97.275 81.107 H 0.0 **** 0.0
18478 H 61.621 96.479 82.549 H 0.0 **** 0.0
18479 H 62.123 98.185 82.626 H 0.0 **** 0.0
18480 H 63.349 96.902 82.493 H 0.0 **** 0.0
18481 C 50.462 12.453 40.741 C 0.0 **** 0.0
18482 H 50.485 11.586 40.081 H 0.0 **** 0.0
18483 H 49.605 13.078 40.491 H 0.0 **** 0.0
18484 H 51.38 13.028 40.618 H 0.0 **** 0.0
18485 H 50.378 12.119 41.776 H 0.0 **** 0.0
18486 C 23.031 7.539 88.98 C 0.0 **** 0.0
18487 H 23.428 6.528 88.886 H 0.0 **** 0.0
18488 H 22.378 7.593 89.851 H 0.0 **** 0.0
18489 H 22.465 7.792 88.084 H 0.0 **** 0.0
18490 H 23.856 8.242 89.099 H 0.0 **** 0.0
18491 C 18.114 89.453 81.281 C 0.0 **** 0.0
18492 H 17.161 88.937 81.4 H 0.0 **** 0.0
18493 H 18.8 89.136 82.067 H 0.0 **** 0.0
18494 H 17.956 90.529 81.348 H 0.0 **** 0.0
18495 H 18.54 89.208 80.308 H 0.0 **** 0.0
18496 C 78.417 18.929 56.029 C 0.0 **** 0.0
18497 H 78.095 19.91 55.68 H 0.0 **** 0.0
18498 H 79.044 18.461 55.27 H 0.0 **** 0.0
18499 H 77.543 18.305 56.215 H 0.0 **** 0.0
18500 H 78.987 19.042 56.952 H 0.0 **** 0.0
18501 C 78.789 42.712 10.113 C 0.0 **** 0.0
18502 H 78.799 42.705 11.202 H 0.0 **** 0.0
18503 H 79.753 43.064 9.744 H 0.0 **** 0.0
18504 H 78.0 43.377 9.761 H 0.0 **** 0.0
18505 H 78.605 41.703 9.744 H 0.0 **** 0.0
18506 C 87.586 85.841 57.557 C 0.0 **** 0.0
18507 H 88.494 86.439 57.64 H 0.0 **** 0.0
18508 H 86.78 86.458 57.158 H 0.0 **** 0.0
18509 H 87.305 85.47 58.543 H 0.0 **** 0.0
18510 H 87.765 84.999 56.889 H 0.0 **** 0.0
18511 C 68.229 56.206 69.493 C 0.0 **** 0.0
18512 H 67.605 55.767 68.716 H 0.0 **** 0.0
18513 H 67.621 56.854 70.125 H 0.0 **** 0.0
18514 H 69.025 56.791 69.033 H 0.0 **** 0.0
18515 H 68.665 55.413 70.1 H 0.0 **** 0.0
18516 C 83.786 95.692 63.283 C 0.0 **** 0.0
18517 H 82.817 95.267 63.024 H 0.0 **** 0.0
18518 H 83.812 95.915 64.35 H 0.0 **** 0.0
18519 H 83.942 96.61 62.716 H 0.0 **** 0.0
18520 H 84.573 94.978 63.041 H 0.0 **** 0.0
18521 C 5.15 38.532 3.797 C 0.0 **** 0.0
18522 H 5.155 38.134 4.812 H 0.0 **** 0.0
18523 H 5.809 39.398 3.743 H 0.0 **** 0.0
18524 H 4.136 38.828 3.529 H 0.0 **** 0.0
18525 H 5.5 37.765 3.106 H 0.0 **** 0.0
18526 C 6.03 77.657 43.652 C 0.0 **** 0.0
18527 H 6.87 77.793 44.332 H 0.0 **** 0.0
18528 H 6.184 76.755 43.061 H 0.0 **** 0.0
18529 H 5.956 78.519 42.989 H 0.0 **** 0.0
18530 H 5.109 77.562 44.228 H 0.0 **** 0.0
18531 C 32.509 63.292 50.19 C 0.0 **** 0.0
18532 H 32.494 64.196 49.581 H 0.0 **** 0.0
18533 H 33.336 62.656 49.875 H 0.0 **** 0.0
18534 H 31.569 62.755 50.067 H 0.0 **** 0.0
18535 H 32.638 63.563 51.238 H 0.0 **** 0.0
18536 C 73.824 49.675 63.199 C 0.0 **** 0.0
18537 H 73.224 49.928 62.324 H 0.0 **** 0.0
18538 H 73.193 49.188 63.943 H 0.0 **** 0.0
18539 H 74.249 50.586 63.622 H 0.0 **** 0.0
18540 H 74.628 49.001 62.905 H 0.0 **** 0.0
18541 C 28.969 95.16 16.483 C 0.0 **** 0.0
18542 H 29.613 95.974 16.151 H 0.0 **** 0.0
18543 H 29.56 94.433 17.041 H 0.0 **** 0.0
18544 H 28.521 94.674 15.615 H 0.0 **** 0.0
18545 H 28.182 95.558 17.123 H 0.0 **** 0.0
18546 C 78.02 65.254 43.513 C 0.0 **** 0.0
18547 H 77.301 65.613 42.776 H 0.0 **** 0.0
18548 H 78.995 65.135 43.039 H 0.0 **** 0.0
18549 H 77.688 64.294 43.907 H 0.0 **** 0.0
18550 H 78.096 65.975 44.327 H 0.0 **** 0.0
18551 C 34.972 5.336 79.828 C 0.0 **** 0.0
18552 H 34.904 5.349 80.915 H 0.0 **** 0.0
18553 H 35.398 6.277 79.479 H 0.0 **** 0.0
18554 H 33.976 5.21 79.403 H 0.0 **** 0.0
18555 H 35.608 4.509 79.513 H 0.0 **** 0.0
18556 C 95.272 66.091 15.518 C 0.0 **** 0.0
18557 H 95.251 66.719 14.627 H 0.0 **** 0.0
18558 H 95.146 66.714 16.403 H 0.0 **** 0.0
18559 H 96.227 65.569 15.572 H 0.0 **** 0.0
18560 H 94.462 65.363 15.467 H 0.0 **** 0.0
18561 C 54.173 75.979 67.578 C 0.0 **** 0.0
18562 H 54.618 75.979 68.574 H 0.0 **** 0.0
18563 H 54.897 76.359 66.857 H 0.0 **** 0.0
18564 H 53.288 76.615 67.576 H 0.0 **** 0.0
18565 H 53.89 74.961 67.308 H 0.0 **** 0.0
18566 C 7.233 17.581 67.895 C 0.0 **** 0.0
18567 H 6.601 16.706 67.744 H 0.0 **** 0.0
18568 H 6.699 18.474 67.571 H 0.0 **** 0.0
18569 H 8.148 17.473 67.312 H 0.0 **** 0.0
18570 H 7.485 17.67 68.952 H 0.0 **** 0.0
18571 C 75.334 70.105 77.599 C 0.0 **** 0.0
18572 H 75.014 70.155 76.559 H 0.0 **** 0.0
18573 H 74.879 70.924 78.158 H 0.0 **** 0.0
18574 H 76.42 70.189 77.65 H 0.0 **** 0.0
18575 H 75.022 69.154 78.03 H 0.0 **** 0.0
18576 C 74.678 65.058 49.257 C 0.0 **** 0.0
18577 H 74.398 64.217 49.891 H 0.0 **** 0.0
18578 H 74.506 64.798 48.212 H 0.0 **** 0.0
18579 H 75.732 65.29 49.406 H 0.0 **** 0.0
18580 H 74.074 65.927 49.519 H 0.0 **** 0.0
18581 C 74.397 2.816 98.213 C 0.0 **** 0.0
18582 H 73.643 2.827 99.0 H 0.0 **** 0.0
18583 H 75.211 3.49 98.48 H 0.0 **** 0.0
18584 H 73.947 3.143 97.275 H 0.0 **** 0.0
18585 H 74.785 1.804 98.096 H 0.0 **** 0.0
18586 C 54.588 13.794 25.958 C 0.0 **** 0.0
18587 H 55.311 12.981 25.895 H 0.0 **** 0.0
18588 H 55.115 14.747 26.006 H 0.0 **** 0.0
18589 H 53.979 13.67 26.854 H 0.0 **** 0.0
18590 H 53.946 13.778 25.078 H 0.0 **** 0.0
18591 C 79.147 1.657 50.447 C 0.0 **** 0.0
18592 H 80.176 1.426 50.17 H 0.0 **** 0.0
18593 H 79.114 2.623 50.95 H 0.0 **** 0.0
18594 H 78.77 0.884 51.117 H 0.0 **** 0.0
18595 H 78.529 1.693 49.549 H 0.0 **** 0.0
18596 C 98.185 2.473 59.004 C 0.0 **** 0.0
18597 H 98.732 1.73 58.424 H 0.0 **** 0.0
18598 H 97.434 2.946 58.372 H 0.0 **** 0.0
18599 H 98.879 3.228 59.373 H 0.0 **** 0.0
18600 H 97.697 1.986 59.848 H 0.0 **** 0.0
18601 C 89.508 13.197 69.703 C 0.0 **** 0.0
18602 H 90.052 12.725 68.885 H 0.0 **** 0.0
18603 H 89.666 14.275 69.669 H 0.0 **** 0.0
18604 H 89.87 12.806 70.653 H 0.0 **** 0.0
18605 H 88.444 12.982 69.602 H 0.0 **** 0.0
18606 C 66.903 19.58 33.187 C 0.0 **** 0.0
18607 H 67.328 19.26 34.138 H 0.0 **** 0.0
18608 H 67.327 18.98 32.38 H 0.0 **** 0.0
18609 H 67.137 20.631 33.02 H 0.0 **** 0.0
18610 H 65.822 19.447 33.209 H 0.0 **** 0.0
18611 C 36.849 86.504 57.904 C 0.0 **** 0.0
18612 H 36.439 85.535 57.618 H 0.0 **** 0.0
18613 H 36.09 87.274 57.763 H 0.0 **** 0.0
18614 H 37.716 86.729 57.284 H 0.0 **** 0.0
18615 H 37.149 86.476 58.952 H 0.0 **** 0.0
18616 C 75.198 19.003 12.201 C 0.0 **** 0.0
18617 H 74.609 19.531 11.451 H 0.0 **** 0.0
18618 H 74.544 18.674 13.009 H 0.0 **** 0.0
18619 H 75.962 19.67 12.599 H 0.0 **** 0.0
18620 H 75.675 18.136 11.743 H 0.0 **** 0.0
18621 C 3.593 71.877 72.278 C 0.0 **** 0.0
18622 H 3.095 72.324 73.139 H 0.0 **** 0.0
18623 H 3.719 72.63 71.5 H 0.0 **** 0.0
18624 H 2.989 71.055 71.895 H 0.0 **** 0.0
18625 H 4.571 71.5 72.58 H 0.0 **** 0.0
18626 C 36.968 25.943 87.374 C 0.0 **** 0.0
18627 H 37.352 25.894 88.393 H 0.0 **** 0.0
18628 H 36.22 26.732 87.306 H 0.0 **** 0.0
18629 H 36.514 24.987 87.111 H 0.0 **** 0.0
18630 H 37.787 26.157 86.688 H 0.0 **** 0.0
18631 C 44.588 81.32 4.383 C 0.0 **** 0.0
18632 H 44.342 81.152 3.334 H 0.0 **** 0.0
18633 H 45.655 81.525 4.477 H 0.0 **** 0.0
18634 H 44.335 80.433 4.962 H 0.0 **** 0.0
18635 H 44.02 82.172 4.756 H 0.0 **** 0.0
18636 C 34.139 56.71 81.571 C 0.0 **** 0.0
18637 H 34.63 57.4 80.885 H 0.0 **** 0.0
18638 H 33.743 55.862 81.012 H 0.0 **** 0.0
18639 H 33.323 57.224 82.08 H 0.0 **** 0.0
18640 H 34.86 56.356 82.308 H 0.0 **** 0.0
18641 C 56.395 55.121 31.541 C 0.0 **** 0.0
18642 H 56.793 56.012 31.056 H 0.0 **** 0.0
18643 H 55.765 55.416 32.381 H 0.0 **** 0.0
18644 H 57.218 54.505 31.903 H 0.0 **** 0.0
18645 H 55.802 54.552 30.825 H 0.0 **** 0.0
18646 C 97.895 52.192 73.962 C 0.0 **** 0.0
18647 H 98.902 52.389 74.331 H 0.0 **** 0.0
18648 H 97.86 52.376 72.888 H 0.0 **** 0.0
18649 H 97.188 52.85 74.467 H 0.0 **** 0.0
18650 H 97.632 51.154 74.162 H 0.0 **** 0.0
18651 C 49.917 93.855 96.886 C 0.0 **** 0.0
18652 H 49.469 94.171 97.828 H 0.0 **** 0.0
18653 H 50.684 93.105 97.082 H 0.0 **** 0.0
18654 H 50.367 94.715 96.391 H 0.0 **** 0.0
18655 H 49.147 93.428 96.243 H 0.0 **** 0.0
18656 C 1.377 52.829 2.798 C 0.0 **** 0.0
18657 H 2.17 52.224 2.359 H 0.0 **** 0.0
18658 H 0.813 53.32 2.005 H 0.0 **** 0.0
18659 H 1.815 53.582 3.453 H 0.0 **** 0.0
18660 H 0.71 52.188 3.376 H 0.0 **** 0.0
18661 C 72.385 80.957 46.928 C 0.0 **** 0.0
18662 H 72.322 80.579 45.907 H 0.0 **** 0.0
18663 H 73.184 81.697 46.992 H 0.0 **** 0.0
18664 H 72.597 80.133 47.608 H 0.0 **** 0.0
18665 H 71.437 81.42 47.202 H 0.0 **** 0.0
18666 C 94.12 4.846 5.818 C 0.0 **** 0.0
18667 H 93.917 4.816 6.889 H 0.0 **** 0.0
18668 H 93.581 5.681 5.37 H 0.0 **** 0.0
18669 H 93.79 3.913 5.361 H 0.0 **** 0.0
18670 H 95.19 4.973 5.655 H 0.0 **** 0.0
18671 C 66.308 69.151 23.632 C 0.0 **** 0.0
18672 H 66.261 69.136 24.721 H 0.0 **** 0.0
18673 H 67.179 68.586 23.299 H 0.0 **** 0.0
18674 H 66.389 70.182 23.287 H 0.0 **** 0.0
18675 H 65.404 68.701 23.223 H 0.0 **** 0.0
18676 C 45.547 8.833 52.783 C 0.0 **** 0.0
18677 H 45.115 9.054 51.807 H 0.0 **** 0.0
18678 H 44.771 8.451 53.446 H 0.0 **** 0.0
18679 H 45.971 9.744 53.206 H 0.0 **** 0.0
18680 H 46.332 8.085 52.671 H 0.0 **** 0.0
18681 C 4.63 45.513 8.948 C 0.0 **** 0.0
18682 H 5.511 45.864 8.41 H 0.0 **** 0.0
18683 H 4.006 46.365 9.218 H 0.0 **** 0.0
18684 H 4.942 44.989 9.851 H 0.0 **** 0.0
18685 H 4.063 44.834 8.311 H 0.0 **** 0.0
18686 C 4.535 48.922 36.978 C 0.0 **** 0.0
18687 H 5.19 48.254 36.419 H 0.0 **** 0.0
18688 H 3.644 48.377 37.292 H 0.0 **** 0.0
18689 H 4.244 49.76 36.345 H 0.0 **** 0.0
18690 H 5.061 49.295 37.857 H 0.0 **** 0.0
18691 C 29.231 36.861 74.269 C 0.0 **** 0.0
18692 H 28.732 37.126 73.337 H 0.0 **** 0.0
18693 H 30.291 36.693 74.078 H 0.0 **** 0.0
18694 H 28.786 35.952 74.673 H 0.0 **** 0.0
18695 H 29.114 37.673 74.987 H 0.0 **** 0.0
18696 C 88.431 83.293 27.449 C 0.0 **** 0.0
18697 H 88.649 82.821 28.407 H 0.0 **** 0.0
18698 H 87.659 84.051 27.586 H 0.0 **** 0.0
18699 H 88.08 82.54 26.744 H 0.0 **** 0.0
18700 H 89.336 83.761 27.061 H 0.0 **** 0.0
18701 C 51.437 84.781 43.19 C 0.0 **** 0.0
18702 H 51.577 85.751 42.713 H 0.0 **** 0.0
18703 H 52.322 84.535 43.778 H 0.0 **** 0.0
18704 H 51.285 84.019 42.426 H 0.0 **** 0.0
18705 H 50.566 84.82 43.844 H 0.0 **** 0.0
18706 C 35.024 90.129 47.419 C 0.0 **** 0.0
18707 H 34.988 89.173 46.897 H 0.0 **** 0.0
18708 H 34.694 90.922 46.748 H 0.0 **** 0.0
18709 H 36.046 90.327 47.742 H 0.0 **** 0.0
18710 H 34.368 90.092 48.289 H 0.0 **** 0.0
18711 C 64.737 53.37 37.456 C 0.0 **** 0.0
18712 H 64.652 54.192 38.168 H 0.0 **** 0.0
18713 H 64.389 52.448 37.923 H 0.0 **** 0.0
18714 H 65.778 53.256 37.156 H 0.0 **** 0.0
18715 H 64.127 53.586 36.579 H 0.0 **** 0.0
18716 C 54.8 44.057 43.476 C 0.0 **** 0.0
18717 H 54.74 44.05 44.565 H 0.0 **** 0.0
18718 H 54.214 43.229 43.075 H 0.0 **** 0.0
18719 H 55.84 43.95 43.169 H 0.0 **** 0.0
18720 H 54.404 45.0 43.098 H 0.0 **** 0.0
18721 C 50.479 22.307 65.849 C 0.0 **** 0.0
18722 H 50.55 23.203 66.465 H 0.0 **** 0.0
18723 H 50.356 22.594 64.804 H 0.0 **** 0.0
18724 H 49.621 21.715 66.167 H 0.0 **** 0.0
18725 H 51.389 21.718 65.959 H 0.0 **** 0.0
18726 C 31.562 15.311 80.655 C 0.0 **** 0.0
18727 H 32.607 15.621 80.65 H 0.0 **** 0.0
18728 H 31.402 14.561 79.88 H 0.0 **** 0.0
18729 H 30.926 16.174 80.462 H 0.0 **** 0.0
18730 H 31.314 14.886 81.628 H 0.0 **** 0.0
18731 C 7.082 58.104 74.109 C 0.0 **** 0.0
18732 H 7.563 58.079 75.087 H 0.0 **** 0.0
18733 H 7.352 57.209 73.549 H 0.0 **** 0.0
18734 H 7.413 58.988 73.564 H 0.0 **** 0.0
18735 H 6.0 58.14 74.237 H 0.0 **** 0.0
18736 C 59.956 43.902 18.47 C 0.0 **** 0.0
18737 H 60.284 44.704 19.131 H 0.0 **** 0.0
18738 H 58.902 43.692 18.649 H 0.0 **** 0.0
18739 H 60.544 43.006 18.666 H 0.0 **** 0.0
18740 H 60.095 44.208 17.433 H 0.0 **** 0.0
18741 C 7.232 28.48 73.379 C 0.0 **** 0.0
18742 H 7.569 27.521 72.985 H 0.0 **** 0.0
18743 H 8.028 29.217 73.271 H 0.0 **** 0.0
18744 H 6.978 28.37 74.433 H 0.0 **** 0.0
18745 H 6.353 28.811 72.826 H 0.0 **** 0.0
18746 C 26.778 13.985 68.704 C 0.0 **** 0.0
18747 H 25.93 14.53 69.118 H 0.0 **** 0.0
18748 H 27.492 13.767 69.498 H 0.0 **** 0.0
18749 H 27.26 14.592 67.937 H 0.0 **** 0.0
18750 H 26.43 13.051 68.262 H 0.0 **** 0.0
18751 C 94.101 97.481 20.975 C 0.0 **** 0.0
18752 H 93.552 98.111 21.674 H 0.0 **** 0.0
18753 H 94.258 98.024 20.043 H 0.0 **** 0.0
18754 H 93.529 96.575 20.777 H 0.0 **** 0.0
18755 H 95.066 97.215 21.407 H 0.0 **** 0.0
18756 C 30.652 18.073 65.602 C 0.0 **** 0.0
18757 H 30.833 19.11 65.886 H 0.0 **** 0.0
18758 H 31.069 17.89 64.611 H 0.0 **** 0.0
18759 H 29.578 17.884 65.585 H 0.0 **** 0.0
18760 H 31.127 17.41 66.324 H 0.0 **** 0.0
18761 C 89.312 41.149 25.852 C 0.0 **** 0.0
18762 H 89.335 41.168 26.941 H 0.0 **** 0.0
18763 H 88.717 40.299 25.516 H 0.0 **** 0.0
18764 H 90.328 41.056 25.468 H 0.0 **** 0.0
18765 H 88.867 42.073 25.482 H 0.0 **** 0.0
18766 C 66.06 11.544 57.205 C 0.0 **** 0.0
18767 H 66.672 12.087 57.926 H 0.0 **** 0.0
18768 H 66.633 11.384 56.291 H 0.0 **** 0.0
18769 H 65.166 12.124 56.978 H 0.0 **** 0.0
18770 H 65.772 10.581 57.627 H 0.0 **** 0.0
18771 C 1.074 22.485 57.687 C 0.0 **** 0.0
18772 H 1.157 22.774 56.64 H 0.0 **** 0.0
18773 H 1.301 23.344 58.32 H 0.0 **** 0.0
18774 H 1.779 21.681 57.899 H 0.0 **** 0.0
18775 H 0.06 22.142 57.89 H 0.0 **** 0.0
18776 C 47.027 15.543 63.138 C 0.0 **** 0.0
18777 H 48.075 15.389 63.392 H 0.0 **** 0.0
18778 H 46.948 16.322 62.379 H 0.0 **** 0.0
18779 H 46.478 15.847 64.029 H 0.0 **** 0.0
18780 H 46.606 14.615 62.751 H 0.0 **** 0.0
18781 C 11.825 62.342 45.709 C 0.0 **** 0.0
18782 H 11.832 62.403 44.621 H 0.0 **** 0.0
18783 H 11.976 61.306 46.015 H 0.0 **** 0.0
18784 H 10.865 62.696 46.086 H 0.0 **** 0.0
18785 H 12.625 62.961 46.114 H 0.0 **** 0.0
18786 C 65.392 46.353 44.797 C 0.0 **** 0.0
18787 H 64.857 46.096 45.712 H 0.0 **** 0.0
18788 H 65.899 45.468 44.412 H 0.0 **** 0.0
18789 H 66.127 47.129 45.012 H 0.0 **** 0.0
18790 H 64.684 46.72 44.054 H 0.0 **** 0.0
18791 C 58.976 88.567 17.579 C 0.0 **** 0.0
18792 H 58.534 87.576 17.475 H 0.0 **** 0.0
18793 H 59.259 88.943 16.596 H 0.0 **** 0.0
18794 H 59.86 88.506 18.214 H 0.0 **** 0.0
18795 H 58.249 89.242 18.031 H 0.0 **** 0.0
18796 C 15.69 95.564 10.771 C 0.0 **** 0.0
18797 H 15.652 96.292 9.961 H 0.0 **** 0.0
18798 H 16.404 94.779 10.52 H 0.0 **** 0.0
18799 H 14.702 95.126 10.913 H 0.0 **** 0.0
18800 H 16.003 96.06 11.69 H 0.0 **** 0.0
18801 C 12.814 15.582 48.206 C 0.0 **** 0.0
18802 H 12.059 15.981 47.529 H 0.0 **** 0.0
18803 H 13.801 15.69 47.755 H 0.0 **** 0.0
18804 H 12.613 14.527 48.393 H 0.0 **** 0.0
18805 H 12.783 16.13 49.148 H 0.0 **** 0.0
18806 C 11.931 54.753 92.848 C 0.0 **** 0.0
18807 H 11.339 54.722 93.763 H 0.0 **** 0.0
18808 H 12.05 53.741 92.459 H 0.0 **** 0.0
18809 H 12.912 55.177 93.064 H 0.0 **** 0.0
18810 H 11.424 55.37 92.107 H 0.0 **** 0.0
18811 C 5.13 21.476 87.755 C 0.0 **** 0.0
18812 H 5.67 21.144 88.641 H 0.0 **** 0.0
18813 H 5.838 21.86 87.02 H 0.0 **** 0.0
18814 H 4.428 22.263 88.031 H 0.0 **** 0.0
18815 H 4.582 20.635 87.328 H 0.0 **** 0.0
18816 C 66.819 37.004 47.752 C 0.0 **** 0.0
18817 H 67.225 37.753 48.431 H 0.0 **** 0.0
18818 H 66.616 37.463 46.784 H 0.0 **** 0.0
18819 H 65.894 36.603 48.165 H 0.0 **** 0.0
18820 H 67.541 36.197 47.628 H 0.0 **** 0.0
18821 C 47.42 58.189 76.981 C 0.0 **** 0.0
18822 H 48.077 59.027 76.744 H 0.0 **** 0.0
18823 H 46.381 58.508 76.895 H 0.0 **** 0.0
18824 H 47.615 57.852 77.999 H 0.0 **** 0.0
18825 H 47.609 57.372 76.284 H 0.0 **** 0.0
18826 C 95.851 91.63 13.532 C 0.0 **** 0.0
18827 H 96.461 91.626 14.435 H 0.0 **** 0.0
18828 H 94.941 91.055 13.706 H 0.0 **** 0.0
18829 H 96.413 91.182 12.712 H 0.0 **** 0.0
18830 H 95.589 92.656 13.275 H 0.0 **** 0.0
18831 C 9.58 55.54 95.789 C 0.0 **** 0.0
18832 H 9.74 55.648 96.862 H 0.0 **** 0.0
18833 H 8.616 55.972 95.52 H 0.0 **** 0.0
18834 H 9.592 54.483 95.524 H 0.0 **** 0.0
18835 H 10.374 56.059 95.25 H 0.0 **** 0.0
18836 C 13.639 61.013 85.774 C 0.0 **** 0.0
18837 H 13.062 60.34 86.408 H 0.0 **** 0.0
18838 H 12.96 61.678 85.24 H 0.0 **** 0.0
18839 H 14.216 60.429 85.056 H 0.0 **** 0.0
18840 H 14.316 61.603 86.391 H 0.0 **** 0.0
18841 C 41.519 18.353 25.85 C 0.0 **** 0.0
18842 H 41.326 17.364 26.267 H 0.0 **** 0.0
18843 H 42.482 18.35 25.339 H 0.0 **** 0.0
18844 H 41.536 19.088 26.655 H 0.0 **** 0.0
18845 H 40.731 18.608 25.142 H 0.0 **** 0.0
18846 C 31.122 68.838 37.751 C 0.0 **** 0.0
18847 H 31.441 68.848 36.709 H 0.0 **** 0.0
18848 H 31.158 67.817 38.132 H 0.0 **** 0.0
18849 H 30.102 69.216 37.821 H 0.0 **** 0.0
18850 H 31.785 69.47 38.34 H 0.0 **** 0.0
18851 C 83.767 92.883 12.141 C 0.0 **** 0.0
18852 H 83.416 93.048 13.159 H 0.0 **** 0.0
18853 H 84.481 93.662 11.872 H 0.0 **** 0.0
18854 H 82.92 92.914 11.456 H 0.0 **** 0.0
18855 H 84.25 91.908 12.077 H 0.0 **** 0.0
18856 C 52.107 72.639 69.179 C 0.0 **** 0.0
18857 H 51.535 72.354 68.295 H 0.0 **** 0.0
18858 H 51.826 71.997 70.015 H 0.0 **** 0.0
18859 H 51.894 73.678 69.43 H 0.0 **** 0.0
18860 H 53.171 72.525 68.974 H 0.0 **** 0.0
18861 C 50.785 92.766 78.84 C 0.0 **** 0.0
18862 H 50.401 92.886 79.854 H 0.0 **** 0.0
18863 H 51.841 93.035 78.819 H 0.0 **** 0.0
18864 H 50.23 93.416 78.163 H 0.0 **** 0.0
18865 H 50.666 91.729 78.527 H 0.0 **** 0.0
18866 C 58.036 77.442 78.55 C 0.0 **** 0.0
18867 H 58.04 78.207 77.774 H 0.0 **** 0.0
18868 H 57.464 77.797 79.408 H 0.0 **** 0.0
18869 H 59.06 77.231 78.858 H 0.0 **** 0.0
18870 H 57.579 76.532 78.16 H 0.0 **** 0.0
18871 C 30.23 61.844 69.918 C 0.0 **** 0.0
18872 H 30.016 62.318 70.876 H 0.0 **** 0.0
18873 H 29.974 62.529 69.109 H 0.0 **** 0.0
18874 H 29.639 60.933 69.824 H 0.0 **** 0.0
18875 H 31.29 61.597 69.864 H 0.0 **** 0.0
18876 C 73.375 10.84 96.218 C 0.0 **** 0.0
18877 H 73.215 10.13 97.03 H 0.0 **** 0.0
18878 H 72.536 10.791 95.524 H 0.0 **** 0.0
18879 H 74.297 10.589 95.693 H 0.0 **** 0.0
18880 H 73.452 11.847 96.627 H 0.0 **** 0.0
18881 C 6.466 3.406 69.862 C 0.0 **** 0.0
18882 H 5.6 3.184 69.238 H 0.0 **** 0.0
18883 H 6.854 4.392 69.607 H 0.0 **** 0.0
18884 H 7.238 2.656 69.693 H 0.0 **** 0.0
18885 H 6.17 3.392 70.911 H 0.0 **** 0.0
18886 C 10.318 5.418 97.191 C 0.0 **** 0.0
18887 H 9.744 6.319 97.407 H 0.0 **** 0.0
18888 H 9.663 4.548 97.251 H 0.0 **** 0.0
18889 H 11.123 5.317 97.919 H 0.0 **** 0.0
18890 H 10.74 5.487 96.189 H 0.0 **** 0.0
18891 C 93.039 25.137 33.031 C 0.0 **** 0.0
18892 H 92.418 25.727 33.705 H 0.0 **** 0.0
18893 H 93.68 24.476 33.615 H 0.0 **** 0.0
18894 H 93.656 25.803 32.429 H 0.0 **** 0.0
18895 H 92.402 24.541 32.378 H 0.0 **** 0.0
18896 C 82.32 20.175 45.648 C 0.0 **** 0.0
18897 H 81.516 20.803 45.263 H 0.0 **** 0.0
18898 H 82.549 20.467 46.673 H 0.0 **** 0.0
18899 H 83.207 20.3 45.028 H 0.0 **** 0.0
18900 H 82.007 19.131 45.629 H 0.0 **** 0.0
18901 C 52.953 68.685 87.648 C 0.0 **** 0.0
18902 H 53.865 68.356 88.146 H 0.0 **** 0.0
18903 H 52.121 68.054 87.961 H 0.0 **** 0.0
18904 H 53.082 68.61 86.568 H 0.0 **** 0.0
18905 H 52.745 69.721 87.918 H 0.0 **** 0.0
18906 C 2.897 88.892 51.599 C 0.0 **** 0.0
18907 H 2.464 88.719 52.585 H 0.0 **** 0.0
18908 H 3.946 89.168 51.707 H 0.0 **** 0.0
18909 H 2.358 89.698 51.102 H 0.0 **** 0.0
18910 H 2.82 87.981 51.005 H 0.0 **** 0.0
18911 C 15.537 28.857 44.944 C 0.0 **** 0.0
18912 H 15.712 28.309 44.017 H 0.0 **** 0.0
18913 H 14.677 29.515 44.82 H 0.0 **** 0.0
18914 H 16.418 29.451 45.186 H 0.0 **** 0.0
18915 H 15.341 28.151 45.751 H 0.0 **** 0.0
18916 C 71.646 43.193 46.685 C 0.0 **** 0.0
18917 H 72.47 43.411 47.365 H 0.0 **** 0.0
18918 H 71.834 42.246 46.179 H 0.0 **** 0.0
18919 H 71.564 43.99 45.946 H 0.0 **** 0.0
18920 H 70.717 43.125 47.251 H 0.0 **** 0.0
18921 C 86.404 34.704 32.37 C 0.0 **** 0.0
18922 H 86.458 35.082 31.349 H 0.0 **** 0.0
18923 H 85.899 35.435 33.001 H 0.0 **** 0.0
18924 H 87.412 34.532 32.746 H 0.0 **** 0.0
18925 H 85.847 33.767 32.381 H 0.0 **** 0.0
18926 C 78.004 6.646 83.346 C 0.0 **** 0.0
18927 H 78.65 5.777 83.223 H 0.0 **** 0.0
18928 H 77.029 6.439 82.905 H 0.0 **** 0.0
18929 H 78.453 7.506 82.849 H 0.0 **** 0.0
18930 H 77.884 6.862 84.408 H 0.0 **** 0.0
18931 C 63.398 36.742 63.882 C 0.0 **** 0.0
18932 H 63.624 36.577 62.828 H 0.0 **** 0.0
18933 H 62.379 37.116 63.98 H 0.0 **** 0.0
18934 H 64.095 37.473 64.292 H 0.0 **** 0.0
18935 H 63.495 35.803 64.426 H 0.0 **** 0.0
18936 C 80.548 4.068 43.533 C 0.0 **** 0.0
18937 H 81.14 3.534 44.277 H 0.0 **** 0.0
18938 H 80.08 4.936 43.998 H 0.0 **** 0.0
18939 H 79.777 3.405 43.14 H 0.0 **** 0.0
18940 H 81.195 4.395 42.72 H 0.0 **** 0.0
18941 C 14.053 84.015 94.817 C 0.0 **** 0.0
18942 H 14.601 83.115 94.537 H 0.0 **** 0.0
18943 H 13.804 84.582 93.92 H 0.0 **** 0.0
18944 H 14.672 84.627 95.473 H 0.0 **** 0.0
18945 H 13.138 83.735 95.337 H 0.0 **** 0.0
18946 C 87.354 65.19 62.532 C 0.0 **** 0.0
18947 H 87.163 65.395 61.479 H 0.0 **** 0.0
18948 H 86.853 65.94 63.145 H 0.0 **** 0.0
18949 H 88.427 65.224 62.72 H 0.0 **** 0.0
18950 H 86.973 64.2 62.784 H 0.0 **** 0.0
18951 C 51.346 50.314 56.154 C 0.0 **** 0.0
18952 H 50.716 49.642 56.736 H 0.0 **** 0.0
18953 H 51.568 51.204 56.742 H 0.0 **** 0.0
18954 H 50.823 50.602 55.242 H 0.0 **** 0.0
18955 H 52.276 49.807 55.895 H 0.0 **** 0.0
18956 C 53.388 66.808 6.178 C 0.0 **** 0.0
18957 H 54.339 67.34 6.14 H 0.0 **** 0.0
18958 H 52.614 67.475 6.558 H 0.0 **** 0.0
18959 H 53.481 65.946 6.838 H 0.0 **** 0.0
18960 H 53.12 66.472 5.177 H 0.0 **** 0.0
18961 C 15.267 75.604 63.679 C 0.0 **** 0.0
18962 H 15.554 75.323 62.665 H 0.0 **** 0.0
18963 H 15.153 76.687 63.737 H 0.0 **** 0.0
18964 H 16.038 75.28 64.377 H 0.0 **** 0.0
18965 H 14.321 75.125 63.934 H 0.0 **** 0.0
18966 C 66.077 49.199 37.946 C 0.0 **** 0.0
18967 H 65.704 49.783 37.105 H 0.0 **** 0.0
18968 H 65.252 48.968 38.621 H 0.0 **** 0.0
18969 H 66.834 49.773 38.48 H 0.0 **** 0.0
18970 H 66.516 48.271 37.578 H 0.0 **** 0.0
18971 C 69.452 14.417 78.271 C 0.0 **** 0.0
18972 H 69.377 14.314 77.188 H 0.0 **** 0.0
18973 H 70.335 15.007 78.519 H 0.0 **** 0.0
18974 H 69.534 13.43 78.725 H 0.0 **** 0.0
18975 H 68.562 14.919 78.649 H 0.0 **** 0.0
18976 C 9.126 6.427 42.92 C 0.0 **** 0.0
18977 H 8.101 6.169 42.656 H 0.0 **** 0.0
18978 H 9.121 7.098 43.78 H 0.0 **** 0.0
18979 H 9.606 6.922 42.075 H 0.0 **** 0.0
18980 H 9.676 5.52 43.17 H 0.0 **** 0.0
18981 C 73.695 5.705 91.006 C 0.0 **** 0.0
18982 H 73.106 6.51 91.446 H 0.0 **** 0.0
18983 H 74.736 5.808 91.311 H 0.0 **** 0.0
18984 H 73.627 5.757 89.92 H 0.0 **** 0.0
18985 H 73.309 4.744 91.348 H 0.0 **** 0.0
18986 C 53.767 31.275 37.683 C 0.0 **** 0.0
18987 H 53.272 31.248 36.713 H 0.0 **** 0.0
18988 H 54.847 31.29 37.539 H 0.0 **** 0.0
18989 H 53.489 30.391 38.257 H 0.0 **** 0.0
18990 H 53.459 32.17 38.223 H 0.0 **** 0.0
18991 C 51.639 98.502 94.956 C 0.0 **** 0.0
18992 H 51.659 98.559 96.044 H 0.0 **** 0.0
18993 H 52.522 98.995 94.55 H 0.0 **** 0.0
18994 H 50.742 98.997 94.582 H 0.0 **** 0.0
18995 H 51.632 97.456 94.648 H 0.0 **** 0.0
18996 C 75.104 7.054 67.0 C 0.0 **** 0.0
18997 H 75.485 6.418 66.201 H 0.0 **** 0.0
18998 H 75.844 7.818 67.241 H 0.0 **** 0.0
18999 H 74.906 6.448 67.884 H 0.0 **** 0.0
19000 H 74.18 7.533 66.674 H 0.0 **** 0.0
19001 C 82.145 44.376 3.265 C 0.0 **** 0.0
19002 H 81.149 43.932 3.274 H 0.0 **** 0.0
19003 H 82.378 44.725 2.259 H 0.0 **** 0.0
19004 H 82.878 43.629 3.57 H 0.0 **** 0.0
19005 H 82.173 45.217 3.958 H 0.0 **** 0.0
19006 C 15.848 11.611 96.063 C 0.0 **** 0.0
19007 H 15.691 11.786 94.999 H 0.0 **** 0.0
19008 H 15.45 12.452 96.632 H 0.0 **** 0.0
19009 H 16.915 11.51 96.261 H 0.0 **** 0.0
19010 H 15.335 10.696 96.36 H 0.0 **** 0.0
19011 C 40.521 39.967 45.496 C 0.0 **** 0.0
19012 H 40.569 40.679 46.32 H 0.0 **** 0.0
19013 H 41.289 40.21 44.761 H 0.0 **** 0.0
19014 H 39.538 40.021 45.026 H 0.0 **** 0.0
19015 H 40.687 38.96 45.876 H 0.0 **** 0.0
19016 C 96.078 49.71 61.238 C 0.0 **** 0.0
19017 H 96.397 49.482 62.255 H 0.0 **** 0.0
19018 H 95.343 50.515 61.26 H 0.0 **** 0.0
19019 H 95.633 48.822 60.789 H 0.0 **** 0.0
19020 H 96.941 50.021 60.648 H 0.0 **** 0.0
19021 C 22.356 53.836 48.218 C 0.0 **** 0.0
19022 H 22.337 52.761 48.398 H 0.0 **** 0.0
19023 H 22.577 54.356 49.15 H 0.0 **** 0.0
19024 H 21.385 54.158 47.843 H 0.0 **** 0.0
19025 H 23.125 54.067 47.481 H 0.0 **** 0.0
19026 C 32.622 36.933 79.56 C 0.0 **** 0.0
19027 H 33.38 37.557 80.034 H 0.0 **** 0.0
19028 H 33.054 36.434 78.693 H 0.0 **** 0.0
19029 H 31.786 37.556 79.242 H 0.0 **** 0.0
19030 H 32.269 36.187 80.272 H 0.0 **** 0.0
19031 C 44.727 53.971 96.143 C 0.0 **** 0.0
19032 H 45.422 53.57 96.88 H 0.0 **** 0.0
19033 H 43.744 53.522 96.29 H 0.0 **** 0.0
19034 H 45.087 53.738 95.141 H 0.0 **** 0.0
19035 H 44.655 55.052 96.262 H 0.0 **** 0.0
19036 C 87.95 43.18 29.101 C 0.0 **** 0.0
19037 H 88.558 43.437 28.234 H 0.0 **** 0.0
19038 H 88.264 43.78 29.956 H 0.0 **** 0.0
19039 H 88.076 42.122 29.333 H 0.0 **** 0.0
19040 H 86.901 43.381 28.882 H 0.0 **** 0.0
19041 C 61.748 95.966 75.763 C 0.0 **** 0.0
19042 H 61.839 96.001 74.678 H 0.0 **** 0.0
19043 H 61.266 96.878 76.116 H 0.0 **** 0.0
19044 H 62.74 95.884 76.208 H 0.0 **** 0.0
19045 H 61.148 95.103 76.05 H 0.0 **** 0.0
19046 C 5.346 40.78 36.555 C 0.0 **** 0.0
19047 H 4.859 40.485 37.484 H 0.0 **** 0.0
19048 H 5.067 41.804 36.308 H 0.0 **** 0.0
19049 H 5.03 40.113 35.752 H 0.0 **** 0.0
19050 H 6.427 40.716 36.675 H 0.0 **** 0.0
19051 C 34.266 40.116 80.114 C 0.0 **** 0.0
19052 H 34.44 39.319 80.837 H 0.0 **** 0.0
19053 H 33.838 39.693 79.205 H 0.0 **** 0.0
19054 H 35.211 40.605 79.878 H 0.0 **** 0.0
19055 H 33.574 40.845 80.536 H 0.0 **** 0.0
19056 C 65.497 2.869 61.979 C 0.0 **** 0.0
19057 H 65.845 2.151 62.721 H 0.0 **** 0.0
19058 H 64.684 2.429 61.401 H 0.0 **** 0.0
19059 H 66.319 3.129 61.311 H 0.0 **** 0.0
19060 H 65.141 3.768 62.483 H 0.0 **** 0.0
19061 C 80.824 40.123 77.306 C 0.0 **** 0.0
19062 H 79.941 40.405 76.732 H 0.0 **** 0.0
19063 H 80.979 39.047 77.228 H 0.0 **** 0.0
19064 H 80.678 40.394 78.351 H 0.0 **** 0.0
19065 H 81.695 40.646 76.912 H 0.0 **** 0.0
19066 C 59.566 31.632 28.822 C 0.0 **** 0.0
19067 H 59.19 32.236 27.997 H 0.0 **** 0.0
19068 H 59.912 30.671 28.441 H 0.0 **** 0.0
19069 H 58.768 31.47 29.547 H 0.0 **** 0.0
19070 H 60.394 32.151 29.304 H 0.0 **** 0.0
19071 C 21.401 82.271 72.583 C 0.0 **** 0.0
19072 H 21.302 83.036 73.352 H 0.0 **** 0.0
19073 H 21.766 82.726 71.662 H 0.0 **** 0.0
19074 H 20.429 81.811 72.4 H 0.0 **** 0.0
19075 H 22.106 81.509 72.917 H 0.0 **** 0.0
19076 C 79.763 66.743 86.84 C 0.0 **** 0.0
19077 H 80.602 66.96 86.179 H 0.0 **** 0.0
19078 H 79.912 67.248 87.794 H 0.0 **** 0.0
19079 H 79.698 65.667 87.004 H 0.0 **** 0.0
19080 H 78.839 67.096 86.381 H 0.0 **** 0.0
19081 C 79.071 42.164 96.963 C 0.0 **** 0.0
19082 H 78.356 41.676 97.625 H 0.0 **** 0.0
19083 H 79.595 42.949 97.509 H 0.0 **** 0.0
19084 H 78.543 42.6 96.115 H 0.0 **** 0.0
19085 H 79.792 41.429 96.602 H 0.0 **** 0.0
19086 C 89.089 4.336 80.264 C 0.0 **** 0.0
19087 H 89.982 4.867 80.595 H 0.0 **** 0.0
19088 H 88.735 4.77 79.329 H 0.0 **** 0.0
19089 H 88.312 4.425 81.023 H 0.0 **** 0.0
19090 H 89.328 3.284 80.11 H 0.0 **** 0.0
19091 C 41.266 16.42 63.168 C 0.0 **** 0.0
19092 H 41.137 15.346 63.034 H 0.0 **** 0.0
19093 H 42.312 16.634 63.392 H 0.0 **** 0.0
19094 H 40.64 16.762 63.991 H 0.0 **** 0.0
19095 H 40.978 16.937 62.253 H 0.0 **** 0.0
19096 C 60.819 13.015 16.344 C 0.0 **** 0.0
19097 H 60.9 12.126 16.969 H 0.0 **** 0.0
19098 H 60.552 12.722 15.328 H 0.0 **** 0.0
19099 H 61.774 13.539 16.332 H 0.0 **** 0.0
19100 H 60.048 13.672 16.747 H 0.0 **** 0.0
19101 C 49.671 74.076 57.542 C 0.0 **** 0.0
19102 H 50.176 74.795 56.898 H 0.0 **** 0.0
19103 H 50.307 73.201 57.678 H 0.0 **** 0.0
19104 H 48.73 73.774 57.082 H 0.0 **** 0.0
19105 H 49.472 74.534 58.511 H 0.0 **** 0.0
19106 C 82.521 88.108 77.818 C 0.0 **** 0.0
19107 H 82.335 87.446 78.665 H 0.0 **** 0.0
19108 H 81.584 88.297 77.293 H 0.0 **** 0.0
19109 H 83.231 87.636 77.139 H 0.0 **** 0.0
19110 H 82.933 89.05 78.178 H 0.0 **** 0.0
19111 C 69.953 16.949 31.903 C 0.0 **** 0.0
19112 H 70.355 16.013 32.29 H 0.0 **** 0.0
19113 H 70.62 17.769 32.172 H 0.0 **** 0.0
19114 H 68.968 17.126 32.334 H 0.0 **** 0.0
19115 H 69.87 16.888 30.818 H 0.0 **** 0.0
19116 C 56.544 81.248 96.21 C 0.0 **** 0.0
19117 H 56.667 81.596 97.236 H 0.0 **** 0.0
19118 H 56.041 82.018 95.624 H 0.0 **** 0.0
19119 H 55.944 80.338 96.206 H 0.0 **** 0.0
19120 H 57.522 81.041 95.776 H 0.0 **** 0.0
19121 C 80.24 58.697 67.229 C 0.0 **** 0.0
19122 H 80.629 59.501 67.854 H 0.0 **** 0.0
19123 H 80.586 58.833 66.204 H 0.0 **** 0.0
19124 H 79.15 58.715 67.25 H 0.0 **** 0.0
19125 H 80.595 57.739 67.608 H 0.0 **** 0.0
19126 C 63.255 74.439 24.079 C 0.0 **** 0.0
19127 H 62.753 74.904 24.927 H 0.0 **** 0.0
19128 H 64.246 74.102 24.384 H 0.0 **** 0.0
19129 H 63.35 75.164 23.27 H 0.0 **** 0.0
19130 H 62.671 73.586 23.735 H 0.0 **** 0.0
19131 C 52.396 90.688 37.686 C 0.0 **** 0.0
19132 H 53.16 91.445 37.504 H 0.0 **** 0.0
19133 H 52.214 90.607 38.758 H 0.0 **** 0.0
19134 H 52.738 89.728 37.302 H 0.0 **** 0.0
19135 H 51.474 90.975 37.181 H 0.0 **** 0.0
19136 C 92.793 40.998 48.242 C 0.0 **** 0.0
19137 H 93.757 41.504 48.275 H 0.0 **** 0.0
19138 H 92.482 40.743 49.256 H 0.0 **** 0.0
19139 H 92.881 40.087 47.649 H 0.0 **** 0.0
19140 H 92.052 41.656 47.789 H 0.0 **** 0.0
19141 C 34.184 24.441 19.414 C 0.0 **** 0.0
19142 H 33.938 23.807 20.266 H 0.0 **** 0.0
19143 H 35.199 24.223 19.081 H 0.0 **** 0.0
19144 H 34.115 25.488 19.709 H 0.0 **** 0.0
19145 H 33.484 24.245 18.601 H 0.0 **** 0.0
19146 C 35.912 66.703 46.045 C 0.0 **** 0.0
19147 H 36.304 66.478 47.037 H 0.0 **** 0.0
19148 H 36.262 67.687 45.731 H 0.0 **** 0.0
19149 H 34.822 66.698 46.076 H 0.0 **** 0.0
19150 H 36.259 65.95 45.338 H 0.0 **** 0.0
19151 C 74.413 81.004 60.601 C 0.0 **** 0.0
19152 H 75.419 80.586 60.645 H 0.0 **** 0.0
19153 H 74.329 81.825 61.313 H 0.0 **** 0.0
19154 H 73.687 80.23 60.851 H 0.0 **** 0.0
19155 H 74.217 81.374 59.594 H 0.0 **** 0.0
19156 C 47.405 39.584 82.663 C 0.0 **** 0.0
19157 H 48.364 39.427 82.168 H 0.0 **** 0.0
19158 H 46.649 39.832 81.919 H 0.0 **** 0.0
19159 H 47.496 40.403 83.377 H 0.0 **** 0.0
19160 H 47.115 38.674 83.189 H 0.0 **** 0.0
19161 C 59.748 32.702 83.374 C 0.0 **** 0.0
19162 H 58.925 32.795 84.083 H 0.0 **** 0.0
19163 H 60.161 31.695 83.428 H 0.0 **** 0.0
19164 H 60.523 33.427 83.62 H 0.0 **** 0.0
19165 H 59.38 32.891 82.365 H 0.0 **** 0.0
19166 C 78.714 39.898 19.773 C 0.0 **** 0.0
19167 H 78.782 39.903 18.685 H 0.0 **** 0.0
19168 H 77.899 39.244 20.083 H 0.0 **** 0.0
19169 H 78.523 40.911 20.128 H 0.0 **** 0.0
19170 H 79.652 39.536 20.193 H 0.0 **** 0.0
19171 C 57.496 40.137 58.89 C 0.0 **** 0.0
19172 H 58.337 40.792 58.661 H 0.0 **** 0.0
19173 H 56.569 40.612 58.569 H 0.0 **** 0.0
19174 H 57.46 39.956 59.964 H 0.0 **** 0.0
19175 H 57.621 39.19 58.366 H 0.0 **** 0.0
19176 C 46.663 69.058 63.599 C 0.0 **** 0.0
19177 H 47.645 68.699 63.291 H 0.0 **** 0.0
19178 H 46.355 69.877 62.948 H 0.0 **** 0.0
19179 H 46.713 69.412 64.629 H 0.0 **** 0.0
19180 H 45.941 68.245 63.529 H 0.0 **** 0.0
19181 C 15.097 27.425 9.939 C 0.0 **** 0.0
19182 H 15.933 26.745 9.775 H 0.0 **** 0.0
19183 H 14.82 27.894 8.995 H 0.0 **** 0.0
19184 H 15.39 28.193 10.655 H 0.0 **** 0.0
19185 H 14.247 26.868 10.332 H 0.0 **** 0.0
19186 C 19.593 62.974 22.638 C 0.0 **** 0.0
19187 H 19.593 63.933 22.121 H 0.0 **** 0.0
19188 H 19.006 62.254 22.067 H 0.0 **** 0.0
19189 H 19.155 63.096 23.629 H 0.0 **** 0.0
19190 H 20.617 62.614 22.735 H 0.0 **** 0.0
19191 C 80.114 76.323 94.416 C 0.0 **** 0.0
19192 H 79.478 76.537 95.274 H 0.0 **** 0.0
19193 H 81.005 76.951 94.459 H 0.0 **** 0.0
19194 H 79.567 76.531 93.497 H 0.0 **** 0.0
19195 H 80.408 75.274 94.434 H 0.0 **** 0.0
19196 C 2.94 77.199 46.501 C 0.0 **** 0.0
19197 H 2.691 76.693 47.433 H 0.0 **** 0.0
19198 H 3.734 76.653 45.991 H 0.0 **** 0.0
19199 H 3.277 78.213 46.716 H 0.0 **** 0.0
19200 H 2.057 77.238 45.862 H 0.0 **** 0.0
19201 C 41.409 68.913 10.084 C 0.0 **** 0.0
19202 H 41.578 68.804 9.013 H 0.0 **** 0.0
19203 H 40.791 69.793 10.267 H 0.0 **** 0.0
19204 H 42.366 69.028 10.593 H 0.0 **** 0.0
19205 H 40.9 68.027 10.463 H 0.0 **** 0.0
19206 C 5.334 98.23 36.511 C 0.0 **** 0.0
19207 H 4.91 97.526 37.227 H 0.0 **** 0.0
19208 H 5.608 97.7 35.599 H 0.0 **** 0.0
19209 H 6.22 98.696 36.941 H 0.0 **** 0.0
19210 H 4.597 98.999 36.278 H 0.0 **** 0.0
19211 C 4.714 40.603 62.862 C 0.0 **** 0.0
19212 H 4.497 41.213 61.985 H 0.0 **** 0.0
19213 H 3.947 39.835 62.969 H 0.0 **** 0.0
19214 H 4.723 41.235 63.75 H 0.0 **** 0.0
19215 H 5.689 40.129 62.743 H 0.0 **** 0.0
19216 C 55.148 72.151 66.478 C 0.0 **** 0.0
19217 H 54.381 72.915 66.609 H 0.0 **** 0.0
19218 H 56.097 72.519 66.869 H 0.0 **** 0.0
19219 H 55.255 71.923 65.418 H 0.0 **** 0.0
19220 H 54.857 71.249 67.016 H 0.0 **** 0.0
19221 C 86.136 45.251 78.77 C 0.0 **** 0.0
19222 H 85.859 45.276 79.824 H 0.0 **** 0.0
19223 H 86.485 44.252 78.51 H 0.0 **** 0.0
19224 H 86.932 45.974 78.587 H 0.0 **** 0.0
19225 H 85.269 45.504 78.16 H 0.0 **** 0.0
19226 C 79.117 96.549 2.787 C 0.0 **** 0.0
19227 H 79.799 97.323 2.436 H 0.0 **** 0.0
19228 H 79.536 96.071 3.673 H 0.0 **** 0.0
19229 H 78.977 95.804 2.004 H 0.0 **** 0.0
19230 H 78.156 96.998 3.037 H 0.0 **** 0.0
19231 C 27.917 2.96 21.916 C 0.0 **** 0.0
19232 H 27.791 3.091 22.991 H 0.0 **** 0.0
19233 H 26.98 3.195 21.41 H 0.0 **** 0.0
19234 H 28.193 1.926 21.706 H 0.0 **** 0.0
19235 H 28.701 3.626 21.558 H 0.0 **** 0.0
19236 C 55.257 23.762 64.374 C 0.0 **** 0.0
19237 H 54.84 23.985 65.356 H 0.0 **** 0.0
19238 H 56.109 23.091 64.485 H 0.0 **** 0.0
19239 H 55.584 24.688 63.9 H 0.0 **** 0.0
19240 H 54.497 23.286 63.755 H 0.0 **** 0.0
19241 C 60.701 53.496 34.568 C 0.0 **** 0.0
19242 H 60.607 54.548 34.298 H 0.0 **** 0.0
19243 H 60.159 53.309 35.496 H 0.0 **** 0.0
19244 H 61.753 53.249 34.705 H 0.0 **** 0.0
19245 H 60.283 52.879 33.773 H 0.0 **** 0.0
19246 C 41.578 89.187 76.973 C 0.0 **** 0.0
19247 H 42.059 90.136 76.739 H 0.0 **** 0.0
19248 H 40.689 89.37 77.577 H 0.0 **** 0.0
19249 H 42.272 88.556 77.529 H 0.0 **** 0.0
19250 H 41.293 88.686 76.048 H 0.0 **** 0.0
19251 C 70.254 78.778 74.218 C 0.0 **** 0.0
19252 H 69.224 78.452 74.071 H 0.0 **** 0.0
19253 H 70.462 78.853 75.286 H 0.0 **** 0.0
19254 H 70.396 79.752 73.751 H 0.0 **** 0.0
19255 H 70.932 78.055 73.765 H 0.0 **** 0.0
19256 C 60.249 86.789 80.01 C 0.0 **** 0.0
19257 H 60.606 86.793 81.04 H 0.0 **** 0.0
19258 H 60.202 87.812 79.638 H 0.0 **** 0.0
19259 H 59.256 86.342 79.972 H 0.0 **** 0.0
19260 H 60.933 86.208 79.392 H 0.0 **** 0.0
19261 C 17.78 79.835 37.997 C 0.0 **** 0.0
19262 H 17.507 79.167 37.181 H 0.0 **** 0.0
19263 H 16.914 80.432 38.285 H 0.0 **** 0.0
19264 H 18.585 80.495 37.673 H 0.0 **** 0.0
19265 H 18.115 79.246 38.851 H 0.0 **** 0.0
19266 C 13.544 4.192 61.767 C 0.0 **** 0.0
19267 H 13.689 4.221 62.847 H 0.0 **** 0.0
19268 H 12.478 4.137 61.545 H 0.0 **** 0.0
19269 H 14.047 3.316 61.357 H 0.0 **** 0.0
19270 H 13.963 5.093 61.32 H 0.0 **** 0.0
19271 C 43.452 88.802 31.127 C 0.0 **** 0.0
19272 H 43.264 89.471 30.288 H 0.0 **** 0.0
19273 H 42.943 89.18 32.014 H 0.0 **** 0.0
19274 H 44.524 88.751 31.318 H 0.0 **** 0.0
19275 H 43.078 87.807 30.889 H 0.0 **** 0.0
19276 C 3.984 17.799 32.085 C 0.0 **** 0.0
19277 H 4.209 17.635 33.139 H 0.0 **** 0.0
19278 H 4.91 17.987 31.541 H 0.0 **** 0.0
19279 H 3.322 18.659 31.985 H 0.0 **** 0.0
19280 H 3.495 16.915 31.676 H 0.0 **** 0.0
19281 C 52.627 55.572 52.092 C 0.0 **** 0.0
19282 H 51.566 55.32 52.08 H 0.0 **** 0.0
19283 H 53.113 55.134 51.219 H 0.0 **** 0.0
19284 H 53.084 55.177 52.999 H 0.0 **** 0.0
19285 H 52.743 56.655 52.068 H 0.0 **** 0.0
19286 C 1.976 69.171 78.499 C 0.0 **** 0.0
19287 H 0.985 68.987 78.912 H 0.0 **** 0.0
19288 H 1.904 69.901 77.692 H 0.0 **** 0.0
19289 H 2.386 68.238 78.11 H 0.0 **** 0.0
19290 H 2.63 69.557 79.281 H 0.0 **** 0.0
19291 C 50.058 11.758 52.117 C 0.0 **** 0.0
19292 H 49.733 11.198 52.994 H 0.0 **** 0.0
19293 H 50.067 11.099 51.248 H 0.0 **** 0.0
19294 H 51.06 12.15 52.287 H 0.0 **** 0.0
19295 H 49.37 12.584 51.939 H 0.0 **** 0.0
19296 C 92.937 41.125 39.169 C 0.0 **** 0.0
19297 H 93.193 40.696 38.201 H 0.0 **** 0.0
19298 H 92.514 42.119 39.025 H 0.0 **** 0.0
19299 H 93.835 41.198 39.783 H 0.0 **** 0.0
19300 H 92.207 40.488 39.668 H 0.0 **** 0.0
19301 C 35.579 89.018 70.533 C 0.0 **** 0.0
19302 H 36.069 88.53 69.691 H 0.0 **** 0.0
19303 H 36.108 89.94 70.776 H 0.0 **** 0.0
19304 H 35.593 88.353 71.396 H 0.0 **** 0.0
19305 H 34.547 89.25 70.268 H 0.0 **** 0.0
19306 C 81.179 13.607 63.423 C 0.0 **** 0.0
19307 H 81.581 14.0 62.49 H 0.0 **** 0.0
19308 H 80.108 13.801 63.468 H 0.0 **** 0.0
19309 H 81.673 14.093 64.265 H 0.0 **** 0.0
19310 H 81.356 12.532 63.47 H 0.0 **** 0.0
19311 C 31.805 72.909 28.576 C 0.0 **** 0.0
19312 H 32.433 72.019 28.61 H 0.0 **** 0.0
19313 H 31.932 73.478 29.497 H 0.0 **** 0.0
19314 H 30.761 72.612 28.473 H 0.0 **** 0.0
19315 H 32.093 73.524 27.724 H 0.0 **** 0.0
19316 C 67.713 51.867 89.349 C 0.0 **** 0.0
19317 H 68.442 51.888 88.54 H 0.0 **** 0.0
19318 H 68.219 51.641 90.288 H 0.0 **** 0.0
19319 H 66.965 51.101 89.145 H 0.0 **** 0.0
19320 H 67.226 52.839 89.424 H 0.0 **** 0.0
19321 C 16.577 44.592 26.253 C 0.0 **** 0.0
19322 H 16.533 44.764 25.177 H 0.0 **** 0.0
19323 H 17.36 45.214 26.687 H 0.0 **** 0.0
19324 H 16.798 43.542 26.444 H 0.0 **** 0.0
19325 H 15.618 44.849 26.702 H 0.0 **** 0.0
19326 C 87.783 78.085 63.801 C 0.0 **** 0.0
19327 H 87.321 77.49 63.013 H 0.0 **** 0.0
19328 H 88.288 77.424 64.506 H 0.0 **** 0.0
19329 H 87.015 78.655 64.323 H 0.0 **** 0.0
19330 H 88.508 78.769 63.362 H 0.0 **** 0.0
19331 C 59.761 50.001 48.302 C 0.0 **** 0.0
19332 H 60.849 50.003 48.236 H 0.0 **** 0.0
19333 H 59.387 51.017 48.174 H 0.0 **** 0.0
19334 H 59.458 49.621 49.278 H 0.0 **** 0.0
19335 H 59.352 49.361 47.52 H 0.0 **** 0.0
19336 C 89.533 29.035 69.056 C 0.0 **** 0.0
19337 H 89.505 29.03 67.966 H 0.0 **** 0.0
19338 H 89.024 29.924 69.429 H 0.0 **** 0.0
19339 H 90.569 29.041 69.393 H 0.0 **** 0.0
19340 H 89.033 28.143 69.435 H 0.0 **** 0.0
19341 C 86.243 2.955 92.407 C 0.0 **** 0.0
19342 H 85.299 2.868 92.946 H 0.0 **** 0.0
19343 H 86.731 1.981 92.37 H 0.0 **** 0.0
19344 H 86.889 3.668 92.919 H 0.0 **** 0.0
19345 H 86.05 3.304 91.392 H 0.0 **** 0.0
19346 C 14.824 40.851 43.692 C 0.0 **** 0.0
19347 H 13.98 40.197 43.915 H 0.0 **** 0.0
19348 H 15.456 40.383 42.936 H 0.0 **** 0.0
19349 H 15.405 41.015 44.6 H 0.0 **** 0.0
19350 H 14.455 41.806 43.318 H 0.0 **** 0.0
19351 C 55.622 63.547 43.414 C 0.0 **** 0.0
19352 H 55.055 63.816 44.306 H 0.0 **** 0.0
19353 H 56.477 64.216 43.312 H 0.0 **** 0.0
19354 H 54.982 63.637 42.537 H 0.0 **** 0.0
19355 H 55.973 62.519 43.504 H 0.0 **** 0.0
19356 C 56.977 91.274 68.375 C 0.0 **** 0.0
19357 H 57.496 91.146 69.325 H 0.0 **** 0.0
19358 H 57.474 92.049 67.791 H 0.0 **** 0.0
19359 H 55.944 91.566 68.563 H 0.0 **** 0.0
19360 H 56.994 90.335 67.822 H 0.0 **** 0.0
19361 C 43.106 24.285 81.097 C 0.0 **** 0.0
19362 H 44.066 24.776 81.255 H 0.0 **** 0.0
19363 H 43.182 23.238 81.393 H 0.0 **** 0.0
19364 H 42.836 24.346 80.043 H 0.0 **** 0.0
19365 H 42.343 24.778 81.698 H 0.0 **** 0.0
19366 C 12.844 19.559 47.499 C 0.0 **** 0.0
19367 H 12.536 19.731 48.531 H 0.0 **** 0.0
19368 H 12.714 18.505 47.252 H 0.0 **** 0.0
19369 H 13.892 19.834 47.383 H 0.0 **** 0.0
19370 H 12.232 20.167 46.833 H 0.0 **** 0.0
19371 C 5.554 85.939 97.928 C 0.0 **** 0.0
19372 H 5.43 86.058 99.004 H 0.0 **** 0.0
19373 H 6.029 84.98 97.721 H 0.0 **** 0.0
19374 H 6.178 86.745 97.543 H 0.0 **** 0.0
19375 H 4.577 85.974 97.445 H 0.0 **** 0.0
19376 C 41.244 89.711 22.247 C 0.0 **** 0.0
19377 H 41.163 89.479 23.309 H 0.0 **** 0.0
19378 H 42.275 89.972 22.011 H 0.0 **** 0.0
19379 H 40.592 90.551 22.009 H 0.0 **** 0.0
19380 H 40.946 88.841 21.662 H 0.0 **** 0.0
19381 C 2.382 26.381 66.807 C 0.0 **** 0.0
19382 H 1.721 26.549 67.658 H 0.0 **** 0.0
19383 H 1.841 25.842 66.028 H 0.0 **** 0.0
19384 H 3.241 25.792 67.127 H 0.0 **** 0.0
19385 H 2.723 27.34 66.418 H 0.0 **** 0.0
19386 C 24.619 44.752 75.503 C 0.0 **** 0.0
19387 H 24.612 44.752 76.593 H 0.0 **** 0.0
19388 H 25.648 44.697 75.147 H 0.0 **** 0.0
19389 H 24.155 45.667 75.136 H 0.0 **** 0.0
19390 H 24.061 43.89 75.137 H 0.0 **** 0.0
19391 C 4.92 52.473 51.923 C 0.0 **** 0.0
19392 H 5.65 53.245 51.679 H 0.0 **** 0.0
19393 H 5.307 51.849 52.729 H 0.0 **** 0.0
19394 H 4.736 51.858 51.042 H 0.0 **** 0.0
19395 H 3.989 52.942 52.24 H 0.0 **** 0.0
19396 C 1.033 26.252 60.313 C 0.0 **** 0.0
19397 H 2.103 26.05 60.371 H 0.0 **** 0.0
19398 H 0.751 26.942 61.108 H 0.0 **** 0.0
19399 H 0.481 25.319 60.429 H 0.0 **** 0.0
19400 H 0.799 26.695 59.346 H 0.0 **** 0.0
19401 C 52.027 85.26 89.89 C 0.0 **** 0.0
19402 H 52.606 84.38 89.613 H 0.0 **** 0.0
19403 H 51.426 85.582 89.04 H 0.0 **** 0.0
19404 H 52.704 86.064 90.182 H 0.0 **** 0.0
19405 H 51.372 85.016 90.727 H 0.0 **** 0.0
19406 C 77.424 78.346 11.962 C 0.0 **** 0.0
19407 H 78.502 78.261 12.095 H 0.0 **** 0.0
19408 H 76.916 77.818 12.769 H 0.0 **** 0.0
19409 H 77.14 77.908 11.006 H 0.0 **** 0.0
19410 H 77.138 79.398 11.979 H 0.0 **** 0.0
19411 C 68.688 95.659 16.766 C 0.0 **** 0.0
19412 H 69.248 96.573 16.569 H 0.0 **** 0.0
19413 H 67.722 95.912 17.203 H 0.0 **** 0.0
19414 H 69.248 95.033 17.462 H 0.0 **** 0.0
19415 H 68.536 95.118 15.833 H 0.0 **** 0.0
19416 C 95.739 52.842 49.818 C 0.0 **** 0.0
19417 H 96.319 53.227 50.657 H 0.0 **** 0.0
19418 H 95.723 51.752 49.858 H 0.0 **** 0.0
19419 H 96.196 53.165 48.883 H 0.0 **** 0.0
19420 H 94.72 53.223 49.876 H 0.0 **** 0.0
19421 C 81.761 27.047 79.544 C 0.0 **** 0.0
19422 H 81.14 26.181 79.775 H 0.0 **** 0.0
19423 H 82.726 26.944 80.041 H 0.0 **** 0.0
19424 H 81.266 27.953 79.895 H 0.0 **** 0.0
19425 H 81.912 27.109 78.466 H 0.0 **** 0.0
19426 C 58.506 73.463 48.752 C 0.0 **** 0.0
19427 H 58.392 72.619 48.071 H 0.0 **** 0.0
19428 H 59.566 73.643 48.933 H 0.0 **** 0.0
19429 H 58.008 73.239 49.695 H 0.0 **** 0.0
19430 H 58.057 74.351 48.307 H 0.0 **** 0.0
19431 C 7.502 60.82 6.361 C 0.0 **** 0.0
19432 H 7.387 60.847 7.445 H 0.0 **** 0.0
19433 H 6.55 60.553 5.902 H 0.0 **** 0.0
19434 H 8.255 60.079 6.094 H 0.0 **** 0.0
19435 H 7.815 61.801 6.004 H 0.0 **** 0.0
19436 C 28.947 73.351 85.756 C 0.0 **** 0.0
19437 H 29.946 73.753 85.924 H 0.0 **** 0.0
19438 H 28.708 72.632 86.54 H 0.0 **** 0.0
19439 H 28.914 72.855 84.786 H 0.0 **** 0.0
19440 H 28.221 74.163 85.774 H 0.0 **** 0.0
19441 C 69.476 95.038 89.82 C 0.0 **** 0.0
19442 H 69.179 95.82 90.519 H 0.0 **** 0.0
19443 H 70.222 94.396 90.289 H 0.0 **** 0.0
19444 H 69.899 95.493 88.924 H 0.0 **** 0.0
19445 H 68.604 94.443 89.548 H 0.0 **** 0.0
19446 C 41.006 20.076 73.402 C 0.0 **** 0.0
19447 H 40.925 18.996 73.279 H 0.0 **** 0.0
19448 H 40.362 20.574 72.677 H 0.0 **** 0.0
19449 H 42.039 20.383 73.242 H 0.0 **** 0.0
19450 H 40.698 20.35 74.411 H 0.0 **** 0.0
19451 C 17.829 33.454 85.615 C 0.0 **** 0.0
19452 H 18.217 33.683 84.622 H 0.0 **** 0.0
19453 H 17.476 32.423 85.638 H 0.0 **** 0.0
19454 H 17.003 34.127 85.846 H 0.0 **** 0.0
19455 H 18.621 33.584 86.352 H 0.0 **** 0.0
19456 C 54.704 51.532 49.711 C 0.0 **** 0.0
19457 H 54.746 51.546 50.8 H 0.0 **** 0.0
19458 H 53.734 51.151 49.39 H 0.0 **** 0.0
19459 H 55.494 50.888 49.324 H 0.0 **** 0.0
19460 H 54.84 52.544 49.33 H 0.0 **** 0.0
19461 C 53.093 93.123 14.32 C 0.0 **** 0.0
19462 H 53.303 92.984 15.381 H 0.0 **** 0.0
19463 H 53.195 94.178 14.066 H 0.0 **** 0.0
19464 H 52.077 92.793 14.105 H 0.0 **** 0.0
19465 H 53.799 92.537 13.731 H 0.0 **** 0.0
19466 C 25.987 12.719 4.381 C 0.0 **** 0.0
19467 H 25.389 12.845 3.479 H 0.0 **** 0.0
19468 H 26.646 13.579 4.503 H 0.0 **** 0.0
19469 H 26.585 11.812 4.297 H 0.0 **** 0.0
19470 H 25.328 12.641 5.246 H 0.0 **** 0.0
19471 C 8.318 22.468 69.11 C 0.0 **** 0.0
19472 H 8.394 22.554 68.026 H 0.0 **** 0.0
19473 H 7.268 22.481 69.403 H 0.0 **** 0.0
19474 H 8.836 23.306 69.577 H 0.0 **** 0.0
19475 H 8.775 21.533 69.433 H 0.0 **** 0.0
19476 C 61.057 22.053 59.738 C 0.0 **** 0.0
19477 H 60.158 21.876 59.147 H 0.0 **** 0.0
19478 H 61.465 21.099 60.073 H 0.0 **** 0.0
19479 H 60.807 22.667 60.603 H 0.0 **** 0.0
19480 H 61.797 22.57 59.127 H 0.0 **** 0.0
19481 C 71.574 53.832 10.075 C 0.0 **** 0.0
19482 H 71.944 53.097 10.79 H 0.0 **** 0.0
19483 H 70.487 53.886 10.139 H 0.0 **** 0.0
19484 H 71.865 53.537 9.067 H 0.0 **** 0.0
19485 H 72.001 54.808 10.305 H 0.0 **** 0.0
19486 C 29.791 65.003 83.631 C 0.0 **** 0.0
19487 H 29.924 64.221 84.378 H 0.0 **** 0.0
19488 H 29.281 65.854 84.084 H 0.0 **** 0.0
19489 H 29.194 64.619 82.804 H 0.0 **** 0.0
19490 H 30.765 65.32 83.259 H 0.0 **** 0.0
19491 C 27.905 57.438 68.78 C 0.0 **** 0.0
19492 H 28.289 58.246 69.403 H 0.0 **** 0.0
19493 H 26.833 57.57 68.634 H 0.0 **** 0.0
19494 H 28.091 56.482 69.271 H 0.0 **** 0.0
19495 H 28.409 57.454 67.813 H 0.0 **** 0.0
19496 C 17.135 89.979 94.228 C 0.0 **** 0.0
19497 H 16.302 90.662 94.059 H 0.0 **** 0.0
19498 H 17.058 89.554 95.229 H 0.0 **** 0.0
19499 H 18.075 90.524 94.136 H 0.0 **** 0.0
19500 H 17.104 89.179 93.489 H 0.0 **** 0.0
19501 C 59.021 66.971 45.955 C 0.0 **** 0.0
19502 H 58.491 66.353 46.68 H 0.0 **** 0.0
19503 H 58.536 66.885 44.982 H 0.0 **** 0.0
19504 H 60.054 66.633 45.878 H 0.0 **** 0.0
19505 H 59.001 68.011 46.281 H 0.0 **** 0.0
19506 C 58.519 60.865 91.743 C 0.0 **** 0.0
19507 H 58.177 60.973 90.714 H 0.0 **** 0.0
19508 H 59.49 60.369 91.753 H 0.0 **** 0.0
19509 H 57.801 60.267 92.304 H 0.0 **** 0.0
19510 H 58.608 61.849 92.202 H 0.0 **** 0.0
19511 C 64.437 48.659 35.127 C 0.0 **** 0.0
19512 H 65.157 48.03 35.651 H 0.0 **** 0.0
19513 H 64.803 49.685 35.099 H 0.0 **** 0.0
19514 H 63.481 48.628 35.65 H 0.0 **** 0.0
19515 H 64.307 48.29 34.11 H 0.0 **** 0.0
19516 C 48.609 6.382 88.771 C 0.0 **** 0.0
19517 H 49.164 6.638 89.673 H 0.0 **** 0.0
19518 H 47.676 5.889 89.046 H 0.0 **** 0.0
19519 H 49.207 5.71 88.155 H 0.0 **** 0.0
19520 H 48.389 7.29 88.21 H 0.0 **** 0.0
19521 C 5.285 85.111 74.035 C 0.0 **** 0.0
19522 H 5.205 85.151 72.949 H 0.0 **** 0.0
19523 H 4.362 84.709 74.453 H 0.0 **** 0.0
19524 H 5.453 86.116 74.424 H 0.0 **** 0.0
19525 H 6.121 84.47 74.314 H 0.0 **** 0.0
19526 C 37.757 82.218 48.128 C 0.0 **** 0.0
19527 H 38.17 82.631 49.049 H 0.0 **** 0.0
19528 H 37.402 81.204 48.312 H 0.0 **** 0.0
19529 H 38.53 82.2 47.36 H 0.0 **** 0.0
19530 H 36.926 82.839 47.792 H 0.0 **** 0.0
19531 C 39.097 18.789 78.759 C 0.0 **** 0.0
19532 H 39.781 18.603 79.587 H 0.0 **** 0.0
19533 H 38.08 18.878 79.142 H 0.0 **** 0.0
19534 H 39.148 17.961 78.052 H 0.0 **** 0.0
19535 H 39.379 19.715 78.257 H 0.0 **** 0.0
19536 C 87.111 13.541 54.694 C 0.0 **** 0.0
19537 H 88.074 13.19 54.323 H 0.0 **** 0.0
19538 H 86.891 14.519 54.264 H 0.0 **** 0.0
19539 H 87.148 13.622 55.781 H 0.0 **** 0.0
19540 H 86.332 12.834 54.409 H 0.0 **** 0.0
19541 C 51.631 23.456 48.984 C 0.0 **** 0.0
19542 H 50.884 22.9 49.55 H 0.0 **** 0.0
19543 H 52.328 23.934 49.673 H 0.0 **** 0.0
19544 H 51.137 24.217 48.38 H 0.0 **** 0.0
19545 H 52.176 22.772 48.333 H 0.0 **** 0.0
19546 C 37.566 81.701 44.838 C 0.0 **** 0.0
19547 H 37.512 81.868 43.762 H 0.0 **** 0.0
19548 H 36.932 80.855 45.106 H 0.0 **** 0.0
19549 H 37.221 82.593 45.361 H 0.0 **** 0.0
19550 H 38.596 81.488 45.122 H 0.0 **** 0.0
19551 C 86.315 17.988 83.429 C 0.0 **** 0.0
19552 H 87.118 18.722 83.366 H 0.0 **** 0.0
19553 H 85.353 18.497 83.374 H 0.0 **** 0.0
19554 H 86.388 17.45 84.375 H 0.0 **** 0.0
19555 H 86.401 17.283 82.603 H 0.0 **** 0.0
19556 C 55.307 36.094 7.98 C 0.0 **** 0.0
19557 H 54.957 36.282 6.965 H 0.0 **** 0.0
19558 H 55.885 35.17 7.999 H 0.0 **** 0.0
19559 H 54.451 36.002 8.648 H 0.0 **** 0.0
19560 H 55.935 36.923 8.306 H 0.0 **** 0.0
19561 C 20.083 48.825 85.835 C 0.0 **** 0.0
19562 H 19.613 49.281 84.963 H 0.0 **** 0.0
19563 H 19.488 47.973 86.164 H 0.0 **** 0.0
19564 H 20.145 49.558 86.639 H 0.0 **** 0.0
19565 H 21.086 48.488 85.572 H 0.0 **** 0.0
19566 C 59.615 41.602 12.348 C 0.0 **** 0.0
19567 H 60.689 41.572 12.532 H 0.0 **** 0.0
19568 H 59.126 40.82 12.929 H 0.0 **** 0.0
19569 H 59.424 41.441 11.288 H 0.0 **** 0.0
19570 H 59.223 42.575 12.645 H 0.0 **** 0.0
19571 C 64.748 3.748 82.623 C 0.0 **** 0.0
19572 H 65.1 3.547 83.635 H 0.0 **** 0.0
19573 H 65.576 3.633 81.922 H 0.0 **** 0.0
19574 H 64.364 4.767 82.568 H 0.0 **** 0.0
19575 H 63.955 3.046 82.368 H 0.0 **** 0.0
19576 C 27.982 82.897 75.119 C 0.0 **** 0.0
19577 H 27.617 82.323 74.267 H 0.0 **** 0.0
19578 H 27.637 83.927 75.036 H 0.0 **** 0.0
19579 H 29.072 82.877 75.13 H 0.0 **** 0.0
19580 H 27.601 82.458 76.041 H 0.0 **** 0.0
19581 C 43.2 35.39 89.444 C 0.0 **** 0.0
19582 H 43.901 35.187 90.253 H 0.0 **** 0.0
19583 H 43.71 35.933 88.648 H 0.0 **** 0.0
19584 H 42.373 35.992 89.822 H 0.0 **** 0.0
19585 H 42.814 34.448 89.052 H 0.0 **** 0.0
19586 C 30.403 81.445 35.256 C 0.0 **** 0.0
19587 H 30.805 81.368 34.246 H 0.0 **** 0.0
19588 H 29.561 82.137 35.261 H 0.0 **** 0.0
19589 H 31.179 81.811 35.928 H 0.0 **** 0.0
19590 H 30.068 80.462 35.589 H 0.0 **** 0.0
19591 C 67.702 29.425 66.976 C 0.0 **** 0.0
19592 H 66.845 29.383 66.304 H 0.0 **** 0.0
19593 H 67.931 28.422 67.337 H 0.0 **** 0.0
19594 H 67.468 30.071 67.822 H 0.0 **** 0.0
19595 H 68.563 29.825 66.441 H 0.0 **** 0.0
19596 C 10.98 3.526 46.671 C 0.0 **** 0.0
19597 H 10.741 3.902 45.676 H 0.0 **** 0.0
19598 H 12.057 3.385 46.757 H 0.0 **** 0.0
19599 H 10.474 2.573 46.83 H 0.0 **** 0.0
19600 H 10.646 4.244 47.42 H 0.0 **** 0.0
19601 C 90.767 23.818 71.075 C 0.0 **** 0.0
19602 H 90.224 23.129 71.722 H 0.0 **** 0.0
19603 H 90.509 24.843 71.34 H 0.0 **** 0.0
19604 H 90.494 23.631 70.036 H 0.0 **** 0.0
19605 H 91.839 23.667 71.202 H 0.0 **** 0.0
19606 C 92.446 42.962 51.126 C 0.0 **** 0.0
19607 H 92.002 41.967 51.107 H 0.0 **** 0.0
19608 H 93.456 42.902 51.532 H 0.0 **** 0.0
19609 H 91.84 43.617 51.753 H 0.0 **** 0.0
19610 H 92.484 43.363 50.113 H 0.0 **** 0.0
19611 C 56.725 22.337 40.565 C 0.0 **** 0.0
19612 H 55.963 22.016 41.275 H 0.0 **** 0.0
19613 H 57.693 21.935 40.865 H 0.0 **** 0.0
19614 H 56.772 23.426 40.552 H 0.0 **** 0.0
19615 H 56.472 21.972 39.57 H 0.0 **** 0.0
19616 C 9.825 26.704 79.907 C 0.0 **** 0.0
19617 H 10.878 26.928 79.737 H 0.0 **** 0.0
19618 H 9.707 25.638 80.104 H 0.0 **** 0.0
19619 H 9.248 26.976 79.023 H 0.0 **** 0.0
19620 H 9.466 27.274 80.764 H 0.0 **** 0.0
19621 C 9.697 69.743 69.028 C 0.0 **** 0.0
19622 H 10.148 69.351 69.939 H 0.0 **** 0.0
19623 H 9.901 70.811 68.951 H 0.0 **** 0.0
19624 H 8.619 69.58 69.057 H 0.0 **** 0.0
19625 H 10.119 69.229 68.164 H 0.0 **** 0.0
19626 C 86.547 86.143 39.376 C 0.0 **** 0.0
19627 H 86.458 87.227 39.3 H 0.0 **** 0.0
19628 H 85.938 85.786 40.206 H 0.0 **** 0.0
19629 H 87.589 85.876 39.548 H 0.0 **** 0.0
19630 H 86.202 85.685 38.449 H 0.0 **** 0.0
19631 C 28.361 77.12 78.5 C 0.0 **** 0.0
19632 H 29.387 76.763 78.595 H 0.0 **** 0.0
19633 H 27.677 76.272 78.526 H 0.0 **** 0.0
19634 H 28.248 77.65 77.553 H 0.0 **** 0.0
19635 H 28.134 77.797 79.324 H 0.0 **** 0.0
19636 C 71.645 18.461 86.261 C 0.0 **** 0.0
19637 H 71.796 17.588 86.896 H 0.0 **** 0.0
19638 H 71.007 18.191 85.419 H 0.0 **** 0.0
19639 H 72.608 18.812 85.891 H 0.0 **** 0.0
19640 H 71.168 19.252 86.839 H 0.0 **** 0.0
19641 C 19.048 12.922 73.402 C 0.0 **** 0.0
19642 H 19.348 13.281 72.418 H 0.0 **** 0.0
19643 H 18.738 11.88 73.33 H 0.0 **** 0.0
19644 H 18.217 13.524 73.77 H 0.0 **** 0.0
19645 H 19.889 13.005 74.09 H 0.0 **** 0.0
19646 C 79.811 3.581 32.316 C 0.0 **** 0.0
19647 H 80.288 3.708 31.344 H 0.0 **** 0.0
19648 H 78.763 3.317 32.174 H 0.0 **** 0.0
19649 H 79.879 4.512 32.878 H 0.0 **** 0.0
19650 H 80.315 2.786 32.867 H 0.0 **** 0.0
19651 C 18.125 11.947 65.802 C 0.0 **** 0.0
19652 H 18.307 11.834 66.87 H 0.0 **** 0.0
19653 H 18.832 11.331 65.246 H 0.0 **** 0.0
19654 H 18.254 12.992 65.52 H 0.0 **** 0.0
19655 H 17.108 11.631 65.571 H 0.0 **** 0.0
19656 C 45.764 65.356 86.727 C 0.0 **** 0.0
19657 H 44.787 65.019 86.381 H 0.0 **** 0.0
19658 H 45.912 66.397 86.44 H 0.0 **** 0.0
19659 H 46.541 64.739 86.276 H 0.0 **** 0.0
19660 H 45.815 65.268 87.813 H 0.0 **** 0.0
19661 C 68.59 0.991 11.385 C 0.0 **** 0.0
19662 H 69.386 1.124 10.652 H 0.0 **** 0.0
19663 H 67.627 0.966 10.875 H 0.0 **** 0.0
19664 H 68.606 1.821 12.092 H 0.0 **** 0.0
19665 H 68.743 0.054 11.92 H 0.0 **** 0.0
19666 C 97.213 72.101 87.783 C 0.0 **** 0.0
19667 H 97.842 71.346 87.313 H 0.0 **** 0.0
19668 H 96.295 72.218 87.207 H 0.0 **** 0.0
19669 H 97.747 73.051 87.814 H 0.0 **** 0.0
19670 H 96.968 71.789 88.799 H 0.0 **** 0.0
19671 C 29.056 56.329 54.281 C 0.0 **** 0.0
19672 H 29.088 55.704 53.388 H 0.0 **** 0.0
19673 H 29.848 57.077 54.229 H 0.0 **** 0.0
19674 H 29.2 55.708 55.164 H 0.0 **** 0.0
19675 H 28.089 56.828 54.34 H 0.0 **** 0.0
19676 C 25.659 21.251 18.451 C 0.0 **** 0.0
19677 H 25.484 21.216 17.376 H 0.0 **** 0.0
19678 H 25.127 22.1 18.878 H 0.0 **** 0.0
19679 H 26.727 21.358 18.641 H 0.0 **** 0.0
19680 H 25.299 20.328 18.907 H 0.0 **** 0.0
19681 C 19.985 83.184 60.391 C 0.0 **** 0.0
19682 H 19.112 83.781 60.655 H 0.0 **** 0.0
19683 H 20.204 83.312 59.33 H 0.0 **** 0.0
19684 H 19.783 82.133 60.597 H 0.0 **** 0.0
19685 H 20.841 83.513 60.981 H 0.0 **** 0.0
19686 C 68.991 15.111 25.955 C 0.0 **** 0.0
19687 H 68.525 15.867 26.588 H 0.0 **** 0.0
19688 H 69.075 14.176 26.508 H 0.0 **** 0.0
19689 H 69.984 15.449 25.658 H 0.0 **** 0.0
19690 H 68.379 14.955 25.066 H 0.0 **** 0.0
19691 C 39.255 67.489 2.239 C 0.0 **** 0.0
19692 H 38.548 66.88 2.802 H 0.0 **** 0.0
19693 H 39.773 68.167 2.918 H 0.0 **** 0.0
19694 H 38.718 68.067 1.487 H 0.0 **** 0.0
19695 H 39.982 66.841 1.748 H 0.0 **** 0.0
19696 C 13.351 32.285 62.509 C 0.0 **** 0.0
19697 H 12.979 31.634 63.3 H 0.0 **** 0.0
19698 H 13.913 31.693 61.786 H 0.0 **** 0.0
19699 H 14.001 33.046 62.939 H 0.0 **** 0.0
19700 H 12.51 32.766 62.009 H 0.0 **** 0.0
19701 C 69.837 22.049 70.986 C 0.0 **** 0.0
19702 H 70.152 23.028 71.346 H 0.0 **** 0.0
19703 H 69.023 22.171 70.27 H 0.0 **** 0.0
19704 H 69.494 21.446 71.827 H 0.0 **** 0.0
19705 H 70.677 21.552 70.501 H 0.0 **** 0.0
19706 C 79.125 82.012 43.384 C 0.0 **** 0.0
19707 H 79.309 81.333 42.551 H 0.0 **** 0.0
19708 H 79.776 82.882 43.294 H 0.0 **** 0.0
19709 H 79.332 81.498 44.323 H 0.0 **** 0.0
19710 H 78.084 82.333 43.367 H 0.0 **** 0.0
19711 C 37.849 48.395 39.547 C 0.0 **** 0.0
19712 H 37.918 48.899 38.583 H 0.0 **** 0.0
19713 H 37.885 49.136 40.346 H 0.0 **** 0.0
19714 H 38.683 47.702 39.655 H 0.0 **** 0.0
19715 H 36.91 47.845 39.603 H 0.0 **** 0.0
19716 C 28.697 56.967 73.416 C 0.0 **** 0.0
19717 H 28.607 56.954 72.329 H 0.0 **** 0.0
19718 H 29.59 57.524 73.7 H 0.0 **** 0.0
19719 H 28.773 55.944 73.786 H 0.0 **** 0.0
19720 H 27.817 57.444 73.847 H 0.0 **** 0.0
19721 C 49.715 19.227 1.698 C 0.0 **** 0.0
19722 H 50.75 19.002 1.956 H 0.0 **** 0.0
19723 H 49.659 20.222 1.254 H 0.0 **** 0.0
19724 H 49.101 19.196 2.598 H 0.0 **** 0.0
19725 H 49.35 18.489 0.984 H 0.0 **** 0.0
19726 C 32.884 82.104 83.27 C 0.0 **** 0.0
19727 H 32.884 82.104 84.36 H 0.0 **** 0.0
19728 H 33.675 82.76 82.906 H 0.0 **** 0.0
19729 H 31.92 82.462 82.907 H 0.0 **** 0.0
19730 H 33.056 81.091 82.906 H 0.0 **** 0.0
19731 C 66.617 53.605 20.819 C 0.0 **** 0.0
19732 H 65.72 53.345 21.38 H 0.0 **** 0.0
19733 H 66.603 54.669 20.583 H 0.0 **** 0.0
19734 H 66.647 53.028 19.894 H 0.0 **** 0.0
19735 H 67.499 53.377 21.418 H 0.0 **** 0.0
19736 C 12.388 48.117 11.434 C 0.0 **** 0.0
19737 H 11.516 48.568 10.961 H 0.0 **** 0.0
19738 H 13.277 48.697 11.184 H 0.0 **** 0.0
19739 H 12.508 47.095 11.075 H 0.0 **** 0.0
19740 H 12.252 48.109 12.515 H 0.0 **** 0.0
19741 C 83.626 61.533 4.915 C 0.0 **** 0.0
19742 H 82.936 60.914 4.343 H 0.0 **** 0.0
19743 H 84.3 60.894 5.485 H 0.0 **** 0.0
19744 H 83.062 62.168 5.599 H 0.0 **** 0.0
19745 H 84.204 62.157 4.234 H 0.0 **** 0.0
19746 C 20.146 78.397 81.071 C 0.0 **** 0.0
19747 H 20.57 77.533 80.56 H 0.0 **** 0.0
19748 H 20.101 79.241 80.383 H 0.0 **** 0.0
19749 H 20.772 78.657 81.925 H 0.0 **** 0.0
19750 H 19.141 78.156 81.418 H 0.0 **** 0.0
19751 C 31.337 29.739 76.993 C 0.0 **** 0.0
19752 H 30.572 30.515 77.017 H 0.0 **** 0.0
19753 H 32.321 30.202 76.925 H 0.0 **** 0.0
19754 H 31.176 29.097 76.127 H 0.0 **** 0.0
19755 H 31.277 29.143 77.904 H 0.0 **** 0.0
19756 C 52.219 40.332 15.295 C 0.0 **** 0.0
19757 H 51.921 41.367 15.13 H 0.0 **** 0.0
19758 H 51.339 39.735 15.536 H 0.0 **** 0.0
19759 H 52.928 40.286 16.122 H 0.0 **** 0.0
19760 H 52.688 39.941 14.393 H 0.0 **** 0.0
19761 C 70.071 22.005 93.214 C 0.0 **** 0.0
19762 H 69.337 22.14 94.008 H 0.0 **** 0.0
19763 H 69.812 21.124 92.626 H 0.0 **** 0.0
19764 H 71.06 21.872 93.652 H 0.0 **** 0.0
19765 H 70.074 22.884 92.569 H 0.0 **** 0.0
19766 C 47.021 16.977 24.214 C 0.0 **** 0.0
19767 H 46.089 17.25 24.709 H 0.0 **** 0.0
19768 H 46.888 16.034 23.682 H 0.0 **** 0.0
19769 H 47.809 16.866 24.959 H 0.0 **** 0.0
19770 H 47.298 17.758 23.505 H 0.0 **** 0.0
19771 C 71.431 25.412 57.723 C 0.0 **** 0.0
19772 H 71.422 25.509 56.637 H 0.0 **** 0.0
19773 H 71.003 26.309 58.171 H 0.0 **** 0.0
19774 H 72.458 25.288 58.067 H 0.0 **** 0.0
19775 H 70.842 24.542 58.014 H 0.0 **** 0.0
19776 C 38.112 41.606 27.78 C 0.0 **** 0.0
19777 H 38.452 42.476 28.342 H 0.0 **** 0.0
19778 H 37.159 41.833 27.301 H 0.0 **** 0.0
19779 H 37.986 40.762 28.458 H 0.0 **** 0.0
19780 H 38.85 41.353 27.02 H 0.0 **** 0.0
19781 C 27.153 54.401 1.77 C 0.0 **** 0.0
19782 H 26.576 55.016 2.461 H 0.0 **** 0.0
19783 H 28.189 54.739 1.762 H 0.0 **** 0.0
19784 H 26.733 54.492 0.768 H 0.0 **** 0.0
19785 H 27.112 53.36 2.088 H 0.0 **** 0.0
19786 C 39.837 20.941 34.857 C 0.0 **** 0.0
19787 H 40.213 20.057 34.341 H 0.0 **** 0.0
19788 H 39.305 21.576 34.149 H 0.0 **** 0.0
19789 H 40.673 21.493 35.286 H 0.0 **** 0.0
19790 H 39.158 20.634 35.653 H 0.0 **** 0.0
19791 C 92.802 25.761 47.697 C 0.0 **** 0.0
19792 H 93.852 26.026 47.573 H 0.0 **** 0.0
19793 H 92.716 24.94 48.409 H 0.0 **** 0.0
19794 H 92.39 25.454 46.736 H 0.0 **** 0.0
19795 H 92.252 26.625 48.069 H 0.0 **** 0.0
19796 C 75.738 97.95 76.542 C 0.0 **** 0.0
19797 H 74.861 98.371 77.033 H 0.0 **** 0.0
19798 H 75.985 98.548 75.665 H 0.0 **** 0.0
19799 H 75.525 96.926 76.235 H 0.0 **** 0.0
19800 H 76.58 97.954 77.234 H 0.0 **** 0.0
19801 C 53.325 61.566 81.65 C 0.0 **** 0.0
19802 H 54.339 61.172 81.732 H 0.0 **** 0.0
19803 H 53.232 62.14 80.728 H 0.0 **** 0.0
19804 H 53.117 62.211 82.503 H 0.0 **** 0.0
19805 H 52.615 60.739 81.638 H 0.0 **** 0.0
19806 C 73.589 61.377 9.06 C 0.0 **** 0.0
19807 H 73.341 61.101 8.035 H 0.0 **** 0.0
19808 H 74.533 60.91 9.342 H 0.0 **** 0.0
19809 H 72.8 61.035 9.729 H 0.0 **** 0.0
19810 H 73.684 62.46 9.132 H 0.0 **** 0.0
19811 C 72.836 11.606 93.0 C 0.0 **** 0.0
19812 H 72.638 12.287 93.828 H 0.0 **** 0.0
19813 H 71.956 11.548 92.359 H 0.0 **** 0.0
19814 H 73.067 10.616 93.391 H 0.0 **** 0.0
19815 H 73.683 11.975 92.422 H 0.0 **** 0.0
19816 C 69.338 37.442 28.303 C 0.0 **** 0.0
19817 H 70.076 37.748 29.044 H 0.0 **** 0.0
19818 H 68.654 38.269 28.109 H 0.0 **** 0.0
19819 H 68.777 36.588 28.682 H 0.0 **** 0.0
19820 H 69.844 37.164 27.379 H 0.0 **** 0.0
19821 C 71.004 75.158 76.752 C 0.0 **** 0.0
19822 H 70.845 74.844 75.721 H 0.0 **** 0.0
19823 H 71.856 75.837 76.798 H 0.0 **** 0.0
19824 H 71.203 74.283 77.372 H 0.0 **** 0.0
19825 H 70.113 75.668 77.118 H 0.0 **** 0.0
19826 C 2.889 22.712 14.459 C 0.0 **** 0.0
19827 H 3.825 22.231 14.744 H 0.0 **** 0.0
19828 H 2.626 22.421 13.442 H 0.0 **** 0.0
19829 H 3.007 23.794 14.509 H 0.0 **** 0.0
19830 H 2.098 22.401 15.142 H 0.0 **** 0.0
19831 C 33.8 78.196 79.814 C 0.0 **** 0.0
19832 H 32.995 78.289 79.085 H 0.0 **** 0.0
19833 H 33.981 77.142 80.022 H 0.0 **** 0.0
19834 H 33.516 78.706 80.735 H 0.0 **** 0.0
19835 H 34.706 78.649 79.413 H 0.0 **** 0.0
19836 C 38.373 18.791 95.883 C 0.0 **** 0.0
19837 H 38.033 19.232 94.946 H 0.0 **** 0.0
19838 H 37.607 18.927 96.647 H 0.0 **** 0.0
19839 H 39.294 19.28 96.201 H 0.0 **** 0.0
19840 H 38.558 17.727 95.738 H 0.0 **** 0.0
19841 C 11.519 61.129 71.577 C 0.0 **** 0.0
19842 H 12.193 60.391 71.141 H 0.0 **** 0.0
19843 H 12.08 62.029 71.829 H 0.0 **** 0.0
19844 H 11.065 60.718 72.478 H 0.0 **** 0.0
19845 H 10.739 61.377 70.857 H 0.0 **** 0.0
19846 C 55.449 55.573 80.418 C 0.0 **** 0.0
19847 H 55.662 55.702 79.357 H 0.0 **** 0.0
19848 H 56.065 54.767 80.816 H 0.0 **** 0.0
19849 H 54.396 55.325 80.549 H 0.0 **** 0.0
19850 H 55.673 56.499 80.948 H 0.0 **** 0.0
19851 C 87.179 70.797 36.699 C 0.0 **** 0.0
19852 H 87.263 71.255 35.714 H 0.0 **** 0.0
19853 H 86.131 70.585 36.913 H 0.0 **** 0.0
19854 H 87.573 71.48 37.452 H 0.0 **** 0.0
19855 H 87.749 69.868 36.717 H 0.0 **** 0.0
19856 C 68.596 30.135 27.725 C 0.0 **** 0.0
19857 H 69.624 30.476 27.602 H 0.0 **** 0.0
19858 H 68.54 29.066 27.519 H 0.0 **** 0.0
19859 H 67.95 30.674 27.032 H 0.0 **** 0.0
19860 H 68.27 30.326 28.748 H 0.0 **** 0.0
19861 C 11.818 45.446 26.62 C 0.0 **** 0.0
19862 H 11.834 45.917 27.603 H 0.0 **** 0.0
19863 H 11.872 46.215 25.849 H 0.0 **** 0.0
19864 H 10.895 44.879 26.505 H 0.0 **** 0.0
19865 H 12.672 44.775 26.525 H 0.0 **** 0.0
19866 C 56.318 16.411 33.385 C 0.0 **** 0.0
19867 H 56.502 16.482 32.313 H 0.0 **** 0.0
19868 H 55.251 16.524 33.578 H 0.0 **** 0.0
19869 H 56.867 17.2 33.9 H 0.0 **** 0.0
19870 H 56.653 15.439 33.747 H 0.0 **** 0.0
19871 C 13.919 4.791 67.054 C 0.0 **** 0.0
19872 H 13.857 4.755 68.141 H 0.0 **** 0.0
19873 H 14.242 3.82 66.676 H 0.0 **** 0.0
19874 H 14.638 5.555 66.756 H 0.0 **** 0.0
19875 H 12.939 5.033 66.642 H 0.0 **** 0.0
19876 C 48.989 17.551 54.52 C 0.0 **** 0.0
19877 H 48.951 17.808 53.461 H 0.0 **** 0.0
19878 H 49.011 16.467 54.63 H 0.0 **** 0.0
19879 H 48.108 17.95 55.022 H 0.0 **** 0.0
19880 H 49.887 17.981 54.965 H 0.0 **** 0.0
19881 C 17.338 76.383 40.349 C 0.0 **** 0.0
19882 H 16.965 76.841 41.265 H 0.0 **** 0.0
19883 H 18.425 76.311 40.394 H 0.0 **** 0.0
19884 H 17.049 76.994 39.494 H 0.0 **** 0.0
19885 H 16.912 75.385 40.243 H 0.0 **** 0.0
19886 C 81.457 96.831 61.347 C 0.0 **** 0.0
19887 H 80.854 97.002 60.455 H 0.0 **** 0.0
19888 H 82.485 96.616 61.054 H 0.0 **** 0.0
19889 H 81.052 95.984 61.901 H 0.0 **** 0.0
19890 H 81.436 97.721 61.976 H 0.0 **** 0.0
19891 C 32.049 28.813 97.992 C 0.0 **** 0.0
19892 H 32.15 28.529 96.945 H 0.0 **** 0.0
19893 H 31.376 29.667 98.073 H 0.0 **** 0.0
19894 H 33.027 29.081 98.392 H 0.0 **** 0.0
19895 H 31.642 27.975 98.558 H 0.0 **** 0.0
19896 C 75.216 49.978 88.014 C 0.0 **** 0.0
19897 H 74.518 50.213 88.818 H 0.0 **** 0.0
19898 H 75.915 50.805 87.888 H 0.0 **** 0.0
19899 H 74.664 49.823 87.087 H 0.0 **** 0.0
19900 H 75.766 49.071 88.265 H 0.0 **** 0.0
19901 C 24.587 32.681 28.603 C 0.0 **** 0.0
19902 H 25.656 32.475 28.645 H 0.0 **** 0.0
19903 H 24.427 33.702 28.256 H 0.0 **** 0.0
19904 H 24.154 32.562 29.596 H 0.0 **** 0.0
19905 H 24.11 31.984 27.913 H 0.0 **** 0.0
19906 C 69.361 98.454 18.565 C 0.0 **** 0.0
19907 H 68.363 98.871 18.702 H 0.0 **** 0.0
19908 H 69.651 98.544 17.518 H 0.0 **** 0.0
19909 H 69.358 97.403 18.853 H 0.0 **** 0.0
19910 H 70.071 99.0 19.187 H 0.0 **** 0.0
19911 C 96.141 11.322 0.969 C 0.0 **** 0.0
19912 H 96.841 11.567 1.768 H 0.0 **** 0.0
19913 H 96.683 11.234 0.027 H 0.0 **** 0.0
19914 H 95.394 12.111 0.887 H 0.0 **** 0.0
19915 H 95.648 10.377 1.195 H 0.0 **** 0.0
19916 C 12.504 91.917 28.338 C 0.0 **** 0.0
19917 H 12.257 91.106 29.023 H 0.0 **** 0.0
19918 H 12.504 92.862 28.88 H 0.0 **** 0.0
19919 H 11.763 91.955 27.539 H 0.0 **** 0.0
19920 H 13.491 91.742 27.909 H 0.0 **** 0.0
19921 C 91.102 22.202 77.325 C 0.0 **** 0.0
19922 H 91.894 21.501 77.586 H 0.0 **** 0.0
19923 H 90.531 21.808 76.484 H 0.0 **** 0.0
19924 H 91.542 23.16 77.049 H 0.0 **** 0.0
19925 H 90.441 22.339 78.181 H 0.0 **** 0.0
19926 C 7.165 55.245 81.849 C 0.0 **** 0.0
19927 H 6.186 54.982 81.449 H 0.0 **** 0.0
19928 H 7.867 54.436 81.651 H 0.0 **** 0.0
19929 H 7.087 55.404 82.925 H 0.0 **** 0.0
19930 H 7.518 56.159 81.372 H 0.0 **** 0.0
19931 C 43.391 69.461 89.14 C 0.0 **** 0.0
19932 H 43.69 70.498 89.29 H 0.0 **** 0.0
19933 H 42.309 69.376 89.243 H 0.0 **** 0.0
19934 H 43.878 68.831 89.885 H 0.0 **** 0.0
19935 H 43.687 69.138 88.142 H 0.0 **** 0.0
19936 C 3.953 86.857 63.063 C 0.0 **** 0.0
19937 H 4.684 87.627 62.818 H 0.0 **** 0.0
19938 H 3.075 87.321 63.515 H 0.0 **** 0.0
19939 H 4.393 86.149 63.766 H 0.0 **** 0.0
19940 H 3.659 86.332 62.154 H 0.0 **** 0.0
19941 C 68.749 84.49 61.463 C 0.0 **** 0.0
19942 H 67.896 85.075 61.119 H 0.0 **** 0.0
19943 H 68.96 84.734 62.505 H 0.0 **** 0.0
19944 H 69.62 84.724 60.851 H 0.0 **** 0.0
19945 H 68.519 83.428 61.377 H 0.0 **** 0.0
19946 C 56.325 13.124 43.802 C 0.0 **** 0.0
19947 H 55.942 13.238 44.816 H 0.0 **** 0.0
19948 H 56.286 14.086 43.29 H 0.0 **** 0.0
19949 H 55.716 12.399 43.263 H 0.0 **** 0.0
19950 H 57.357 12.775 43.841 H 0.0 **** 0.0
19951 C 35.776 84.915 73.596 C 0.0 **** 0.0
19952 H 36.036 85.327 74.571 H 0.0 **** 0.0
19953 H 36.674 84.839 72.983 H 0.0 **** 0.0
19954 H 35.055 85.569 73.106 H 0.0 **** 0.0
19955 H 35.339 83.925 73.725 H 0.0 **** 0.0
19956 C 76.54 82.986 46.424 C 0.0 **** 0.0
19957 H 76.355 84.037 46.649 H 0.0 **** 0.0
19958 H 77.032 82.514 47.275 H 0.0 **** 0.0
19959 H 77.181 82.91 45.545 H 0.0 **** 0.0
19960 H 75.593 82.485 46.227 H 0.0 **** 0.0
19961 C 73.098 33.449 53.283 C 0.0 **** 0.0
19962 H 74.088 33.618 52.86 H 0.0 **** 0.0
19963 H 73.171 32.74 54.107 H 0.0 **** 0.0
19964 H 72.439 33.047 52.514 H 0.0 **** 0.0
19965 H 72.695 34.393 53.65 H 0.0 **** 0.0
19966 C 54.486 53.903 98.328 C 0.0 **** 0.0
19967 H 54.317 54.439 97.393 H 0.0 **** 0.0
19968 H 55.078 54.524 99.0 H 0.0 **** 0.0
19969 H 55.02 52.975 98.123 H 0.0 **** 0.0
19970 H 53.527 53.675 98.793 H 0.0 **** 0.0
19971 C 83.569 54.895 49.104 C 0.0 **** 0.0
19972 H 84.64 54.741 49.235 H 0.0 **** 0.0
19973 H 83.26 54.494 48.139 H 0.0 **** 0.0
19974 H 83.348 55.962 49.143 H 0.0 **** 0.0
19975 H 83.029 54.383 49.9 H 0.0 **** 0.0
19976 C 53.985 82.093 90.62 C 0.0 **** 0.0
19977 H 53.15 82.691 90.984 H 0.0 **** 0.0
19978 H 53.824 81.047 90.883 H 0.0 **** 0.0
19979 H 54.91 82.444 91.077 H 0.0 **** 0.0
19980 H 54.056 82.189 89.537 H 0.0 **** 0.0
19981 C 66.352 10.267 45.557 C 0.0 **** 0.0
19982 H 67.159 10.873 45.145 H 0.0 **** 0.0
19983 H 66.286 10.434 46.632 H 0.0 **** 0.0
19984 H 66.554 9.213 45.364 H 0.0 **** 0.0
19985 H 65.41 10.548 45.086 H 0.0 **** 0.0
19986 C 75.209 77.083 6.778 C 0.0 **** 0.0
19987 H 76.246 77.224 7.082 H 0.0 **** 0.0
19988 H 74.619 76.765 7.638 H 0.0 **** 0.0
19989 H 75.159 76.322 6.0 H 0.0 **** 0.0
19990 H 74.813 78.023 6.393 H 0.0 **** 0.0
19991 C 28.43 65.82 40.909 C 0.0 **** 0.0
19992 H 29.025 65.452 40.073 H 0.0 **** 0.0
19993 H 28.698 65.272 41.813 H 0.0 **** 0.0
19994 H 27.372 65.673 40.695 H 0.0 **** 0.0
19995 H 28.628 66.882 41.056 H 0.0 **** 0.0
19996 C 59.279 41.576 22.245 C 0.0 **** 0.0
19997 H 58.315 41.086 22.109 H 0.0 **** 0.0
19998 H 60.076 40.836 22.167 H 0.0 **** 0.0
19999 H 59.312 42.044 23.229 H 0.0 **** 0.0
20000 H 59.412 42.336 21.476 H 0.0 **** 0.0
20001 C 51.169 28.23 61.192 C 0.0 **** 0.0
20002 H 51.15 28.24 62.282 H 0.0 **** 0.0
20003 H 50.297 27.694 60.819 H 0.0 **** 0.0
20004 H 52.076 27.731 60.85 H 0.0 **** 0.0
20005 H 51.155 29.254 60.819 H 0.0 **** 0.0
20006 C 32.719 5.296 63.571 C 0.0 **** 0.0
20007 H 32.796 5.22 62.486 H 0.0 **** 0.0
20008 H 33.62 4.887 64.029 H 0.0 **** 0.0
20009 H 31.849 4.734 63.913 H 0.0 **** 0.0
20010 H 32.61 6.343 63.855 H 0.0 **** 0.0
20011 C 2.345 69.249 97.205 C 0.0 **** 0.0
20012 H 1.429 69.556 96.701 H 0.0 **** 0.0
20013 H 2.448 68.166 97.143 H 0.0 **** 0.0
20014 H 2.303 69.552 98.251 H 0.0 **** 0.0
20015 H 3.2 69.723 96.724 H 0.0 **** 0.0
20016 C 98.042 88.125 42.705 C 0.0 **** 0.0
20017 H 97.337 88.099 41.873 H 0.0 **** 0.0
20018 H 98.796 88.89 42.518 H 0.0 **** 0.0
20019 H 98.525 87.153 42.802 H 0.0 **** 0.0
20020 H 97.507 88.358 43.626 H 0.0 **** 0.0
20021 C 45.905 20.575 15.608 C 0.0 **** 0.0
20022 H 46.474 19.692 15.318 H 0.0 **** 0.0
20023 H 46.389 21.056 16.458 H 0.0 **** 0.0
20024 H 44.893 20.28 15.884 H 0.0 **** 0.0
20025 H 45.864 21.272 14.77 H 0.0 **** 0.0
20026 C 10.292 92.787 16.346 C 0.0 **** 0.0
20027 H 9.583 93.593 16.536 H 0.0 **** 0.0
20028 H 11.304 93.191 16.323 H 0.0 **** 0.0
20029 H 10.063 92.322 15.387 H 0.0 **** 0.0
20030 H 10.215 92.042 17.138 H 0.0 **** 0.0
20031 C 94.319 12.987 12.191 C 0.0 **** 0.0
20032 H 93.484 12.437 11.757 H 0.0 **** 0.0
20033 H 94.025 14.024 12.354 H 0.0 **** 0.0
20034 H 95.17 12.952 11.511 H 0.0 **** 0.0
20035 H 94.595 12.534 13.143 H 0.0 **** 0.0
20036 C 18.097 60.871 33.209 C 0.0 **** 0.0
20037 H 17.711 61.813 33.596 H 0.0 **** 0.0
20038 H 17.455 60.053 33.537 H 0.0 **** 0.0
20039 H 19.109 60.711 33.583 H 0.0 **** 0.0
20040 H 18.114 60.906 32.12 H 0.0 **** 0.0
20041 C 76.935 5.357 97.557 C 0.0 **** 0.0
20042 H 77.213 4.316 97.725 H 0.0 **** 0.0
20043 H 75.885 5.41 97.27 H 0.0 **** 0.0
20044 H 77.551 5.773 96.76 H 0.0 **** 0.0
20045 H 77.092 5.927 98.472 H 0.0 **** 0.0
20046 C 29.272 89.364 6.746 C 0.0 **** 0.0
20047 H 30.079 89.856 7.291 H 0.0 **** 0.0
20048 H 29.387 89.554 5.679 H 0.0 **** 0.0
20049 H 28.314 89.757 7.085 H 0.0 **** 0.0
20050 H 29.311 88.291 6.931 H 0.0 **** 0.0
20051 C 94.722 54.66 46.339 C 0.0 **** 0.0
20052 H 94.381 54.931 45.34 H 0.0 **** 0.0
20053 H 95.762 54.964 46.463 H 0.0 **** 0.0
20054 H 94.641 53.581 46.47 H 0.0 **** 0.0
20055 H 94.105 55.164 47.082 H 0.0 **** 0.0
20056 C 27.682 34.294 62.163 C 0.0 **** 0.0
20057 H 27.99 35.123 62.801 H 0.0 **** 0.0
20058 H 26.708 33.928 62.489 H 0.0 **** 0.0
20059 H 28.414 33.49 62.234 H 0.0 **** 0.0
20060 H 27.615 34.635 61.13 H 0.0 **** 0.0
20061 C 8.72 6.219 71.684 C 0.0 **** 0.0
20062 H 9.651 6.507 71.196 H 0.0 **** 0.0
20063 H 7.887 6.376 70.999 H 0.0 **** 0.0
20064 H 8.575 6.828 72.577 H 0.0 **** 0.0
20065 H 8.767 5.167 71.965 H 0.0 **** 0.0
20066 C 57.903 83.454 98.373 C 0.0 **** 0.0
20067 H 58.137 83.253 97.328 H 0.0 **** 0.0
20068 H 58.31 84.425 98.656 H 0.0 **** 0.0
20069 H 58.343 82.678 99.0 H 0.0 **** 0.0
20070 H 56.821 83.46 98.509 H 0.0 **** 0.0
20071 C 9.873 65.509 80.841 C 0.0 **** 0.0
20072 H 9.241 65.667 81.715 H 0.0 **** 0.0
20073 H 9.733 64.493 80.471 H 0.0 **** 0.0
20074 H 10.917 65.655 81.117 H 0.0 **** 0.0
20075 H 9.6 66.221 80.062 H 0.0 **** 0.0
20076 C 41.901 86.361 12.253 C 0.0 **** 0.0
20077 H 41.696 85.379 12.679 H 0.0 **** 0.0
20078 H 40.977 86.786 11.86 H 0.0 **** 0.0
20079 H 42.628 86.263 11.448 H 0.0 **** 0.0
20080 H 42.302 87.016 13.027 H 0.0 **** 0.0
20081 C 68.163 84.146 18.093 C 0.0 **** 0.0
20082 H 68.783 84.859 17.55 H 0.0 **** 0.0
20083 H 67.119 84.284 17.811 H 0.0 **** 0.0
20084 H 68.274 84.309 19.165 H 0.0 **** 0.0
20085 H 68.475 83.131 17.845 H 0.0 **** 0.0
20086 C 90.894 78.401 65.929 C 0.0 **** 0.0
20087 H 90.354 77.889 65.133 H 0.0 **** 0.0
20088 H 90.944 79.467 65.707 H 0.0 **** 0.0
20089 H 91.904 77.997 66.001 H 0.0 **** 0.0
20090 H 90.374 78.251 66.876 H 0.0 **** 0.0
20091 C 63.938 56.582 22.987 C 0.0 **** 0.0
20092 H 64.561 56.048 23.704 H 0.0 **** 0.0
20093 H 64.562 56.966 22.18 H 0.0 **** 0.0
20094 H 63.438 57.411 23.487 H 0.0 **** 0.0
20095 H 63.192 55.901 22.577 H 0.0 **** 0.0
20096 C 62.233 29.68 10.618 C 0.0 **** 0.0
20097 H 62.235 29.677 9.528 H 0.0 **** 0.0
20098 H 61.293 30.098 10.978 H 0.0 **** 0.0
20099 H 63.064 30.284 10.981 H 0.0 **** 0.0
20100 H 62.34 28.658 10.983 H 0.0 **** 0.0
20101 C 0.876 26.532 55.455 C 0.0 **** 0.0
20102 H 1.46 26.569 56.375 H 0.0 **** 0.0
20103 H 1.488 26.118 54.653 H 0.0 **** 0.0
20104 H 0.557 27.539 55.187 H 0.0 **** 0.0
20105 H 0.0 25.901 55.607 H 0.0 **** 0.0
20106 C 3.179 89.679 20.403 C 0.0 **** 0.0
20107 H 3.495 89.486 21.428 H 0.0 **** 0.0
20108 H 3.318 88.778 19.805 H 0.0 **** 0.0
20109 H 3.777 90.488 19.985 H 0.0 **** 0.0
20110 H 2.127 89.963 20.394 H 0.0 **** 0.0
20111 C 20.187 85.84 98.467 C 0.0 **** 0.0
20112 H 20.165 84.887 98.996 H 0.0 **** 0.0
20113 H 19.95 85.676 97.415 H 0.0 **** 0.0
20114 H 21.182 86.278 98.551 H 0.0 **** 0.0
20115 H 19.453 86.516 98.905 H 0.0 **** 0.0
20116 C 53.102 24.162 67.031 C 0.0 **** 0.0
20117 H 53.235 25.221 66.813 H 0.0 **** 0.0
20118 H 54.04 23.746 67.398 H 0.0 **** 0.0
20119 H 52.802 23.639 66.123 H 0.0 **** 0.0
20120 H 52.329 24.042 67.791 H 0.0 **** 0.0
20121 C 88.838 49.523 53.386 C 0.0 **** 0.0
20122 H 88.921 49.147 52.366 H 0.0 **** 0.0
20123 H 88.965 50.606 53.385 H 0.0 **** 0.0
20124 H 89.61 49.067 54.006 H 0.0 **** 0.0
20125 H 87.855 49.273 53.786 H 0.0 **** 0.0
20126 C 97.982 57.635 47.926 C 0.0 **** 0.0
20127 H 98.453 57.267 48.838 H 0.0 **** 0.0
20128 H 97.065 57.075 47.74 H 0.0 **** 0.0
20129 H 98.665 57.505 47.087 H 0.0 **** 0.0
20130 H 97.745 58.692 48.042 H 0.0 **** 0.0
20131 C 29.818 47.42 15.874 C 0.0 **** 0.0
20132 H 29.08 47.167 16.636 H 0.0 **** 0.0
20133 H 30.039 48.486 15.921 H 0.0 **** 0.0
20134 H 29.422 47.173 14.889 H 0.0 **** 0.0
20135 H 30.731 46.851 16.051 H 0.0 **** 0.0
20136 C 59.21 44.811 81.247 C 0.0 **** 0.0
20137 H 58.593 45.348 81.968 H 0.0 **** 0.0
20138 H 58.776 44.91 80.252 H 0.0 **** 0.0
20139 H 59.254 43.757 81.522 H 0.0 **** 0.0
20140 H 60.217 45.229 81.248 H 0.0 **** 0.0
20141 C 23.122 24.491 55.964 C 0.0 **** 0.0
20142 H 23.264 24.614 54.891 H 0.0 **** 0.0
20143 H 22.678 25.397 56.378 H 0.0 **** 0.0
20144 H 24.086 24.309 56.439 H 0.0 **** 0.0
20145 H 22.461 23.645 56.149 H 0.0 **** 0.0
20146 C 54.112 14.863 57.298 C 0.0 **** 0.0
20147 H 53.076 15.152 57.474 H 0.0 **** 0.0
20148 H 54.23 13.796 57.491 H 0.0 **** 0.0
20149 H 54.765 15.428 57.963 H 0.0 **** 0.0
20150 H 54.377 15.076 56.262 H 0.0 **** 0.0
20151 C 27.533 8.824 54.093 C 0.0 **** 0.0
20152 H 27.245 8.321 55.016 H 0.0 **** 0.0
20153 H 27.362 9.896 54.196 H 0.0 **** 0.0
20154 H 26.936 8.438 53.267 H 0.0 **** 0.0
20155 H 28.589 8.642 53.895 H 0.0 **** 0.0
20156 C 62.853 56.285 77.869 C 0.0 **** 0.0
20157 H 63.077 55.909 78.867 H 0.0 **** 0.0
20158 H 62.168 55.601 77.369 H 0.0 **** 0.0
20159 H 63.776 56.362 77.294 H 0.0 **** 0.0
20160 H 62.391 57.27 77.948 H 0.0 **** 0.0
20161 C 75.352 63.582 17.539 C 0.0 **** 0.0
20162 H 75.207 63.452 18.612 H 0.0 **** 0.0
20163 H 75.674 64.604 17.338 H 0.0 **** 0.0
20164 H 74.414 63.387 17.02 H 0.0 **** 0.0
20165 H 76.114 62.885 17.189 H 0.0 **** 0.0
20166 C 25.041 57.339 84.737 C 0.0 **** 0.0
20167 H 24.519 58.029 85.401 H 0.0 **** 0.0
20168 H 26.102 57.587 84.717 H 0.0 **** 0.0
20169 H 24.628 57.422 83.731 H 0.0 **** 0.0
20170 H 24.912 56.319 85.099 H 0.0 **** 0.0
20171 C 50.511 5.883 63.458 C 0.0 **** 0.0
20172 H 50.794 5.062 64.118 H 0.0 **** 0.0
20173 H 49.448 6.094 63.577 H 0.0 **** 0.0
20174 H 50.714 5.604 62.424 H 0.0 **** 0.0
20175 H 51.089 6.771 63.715 H 0.0 **** 0.0
20176 C 90.906 75.049 36.48 C 0.0 **** 0.0
20177 H 90.885 75.05 35.391 H 0.0 **** 0.0
20178 H 91.89 74.728 36.824 H 0.0 **** 0.0
20179 H 90.148 74.363 36.857 H 0.0 **** 0.0
20180 H 90.702 76.054 36.848 H 0.0 **** 0.0
20181 C 70.293 30.417 51.326 C 0.0 **** 0.0
20182 H 70.406 30.303 52.404 H 0.0 **** 0.0
20183 H 69.647 29.627 50.943 H 0.0 **** 0.0
20184 H 71.271 30.35 50.85 H 0.0 **** 0.0
20185 H 69.849 31.388 51.109 H 0.0 **** 0.0
20186 C 27.78 68.051 9.96 C 0.0 **** 0.0
20187 H 27.889 67.552 8.998 H 0.0 **** 0.0
20188 H 28.483 68.883 10.019 H 0.0 **** 0.0
20189 H 27.986 67.343 10.762 H 0.0 **** 0.0
20190 H 26.762 68.428 10.061 H 0.0 **** 0.0
20191 C 58.474 59.58 83.754 C 0.0 **** 0.0
20192 H 59.187 59.258 84.513 H 0.0 **** 0.0
20193 H 58.348 60.661 83.81 H 0.0 **** 0.0
20194 H 57.514 59.093 83.928 H 0.0 **** 0.0
20195 H 58.846 59.307 82.767 H 0.0 **** 0.0
20196 C 60.624 63.198 40.585 C 0.0 **** 0.0
20197 H 61.204 62.351 40.949 H 0.0 **** 0.0
20198 H 59.9 63.496 41.344 H 0.0 **** 0.0
20199 H 60.099 62.914 39.673 H 0.0 **** 0.0
20200 H 61.293 64.033 40.374 H 0.0 **** 0.0
20201 C 53.594 38.354 88.664 C 0.0 **** 0.0
20202 H 53.697 37.957 87.655 H 0.0 **** 0.0
20203 H 52.567 38.217 89.005 H 0.0 **** 0.0
20204 H 53.838 39.417 88.663 H 0.0 **** 0.0
20205 H 54.273 37.826 89.334 H 0.0 **** 0.0
20206 C 94.03 48.246 10.193 C 0.0 **** 0.0
20207 H 94.164 48.249 11.274 H 0.0 **** 0.0
20208 H 94.193 49.252 9.804 H 0.0 **** 0.0
20209 H 93.017 47.923 9.953 H 0.0 **** 0.0
20210 H 94.746 47.561 9.74 H 0.0 **** 0.0
20211 C 62.739 52.844 31.791 C 0.0 **** 0.0
20212 H 63.034 52.762 30.745 H 0.0 **** 0.0
20213 H 63.001 51.925 32.316 H 0.0 **** 0.0
20214 H 61.662 53.003 31.853 H 0.0 **** 0.0
20215 H 63.258 53.686 32.25 H 0.0 **** 0.0
20216 C 28.555 33.393 20.573 C 0.0 **** 0.0
20217 H 28.507 34.312 19.989 H 0.0 **** 0.0
20218 H 28.493 33.635 21.635 H 0.0 **** 0.0
20219 H 29.496 32.883 20.37 H 0.0 **** 0.0
20220 H 27.723 32.745 20.299 H 0.0 **** 0.0
20221 C 91.507 93.303 52.3 C 0.0 **** 0.0
20222 H 91.36 93.784 51.333 H 0.0 **** 0.0
20223 H 91.79 94.053 53.039 H 0.0 **** 0.0
20224 H 92.298 92.558 52.218 H 0.0 **** 0.0
20225 H 90.581 92.819 52.609 H 0.0 **** 0.0
20226 C 28.769 67.498 71.926 C 0.0 **** 0.0
20227 H 29.45 67.129 71.159 H 0.0 **** 0.0
20228 H 28.074 68.21 71.482 H 0.0 **** 0.0
20229 H 29.341 67.989 72.713 H 0.0 **** 0.0
20230 H 28.213 66.662 72.349 H 0.0 **** 0.0
20231 C 80.693 91.15 12.601 C 0.0 **** 0.0
20232 H 81.256 90.886 13.496 H 0.0 **** 0.0
20233 H 81.362 91.155 11.74 H 0.0 **** 0.0
20234 H 80.256 92.141 12.727 H 0.0 **** 0.0
20235 H 79.9 90.42 12.442 H 0.0 **** 0.0
20236 C 77.876 61.411 1.829 C 0.0 **** 0.0
20237 H 77.912 61.336 2.916 H 0.0 **** 0.0
20238 H 76.984 60.906 1.459 H 0.0 **** 0.0
20239 H 78.763 60.941 1.404 H 0.0 **** 0.0
20240 H 77.847 62.461 1.538 H 0.0 **** 0.0
20241 C 50.664 12.772 7.784 C 0.0 **** 0.0
20242 H 51.405 13.493 8.128 H 0.0 **** 0.0
20243 H 50.941 12.41 6.794 H 0.0 **** 0.0
20244 H 49.686 13.25 7.737 H 0.0 **** 0.0
20245 H 50.625 11.933 8.48 H 0.0 **** 0.0
20246 C 38.872 64.542 20.89 C 0.0 **** 0.0
20247 H 39.864 64.915 21.142 H 0.0 **** 0.0
20248 H 38.22 65.381 20.647 H 0.0 **** 0.0
20249 H 38.462 63.996 21.739 H 0.0 **** 0.0
20250 H 38.942 63.876 20.03 H 0.0 **** 0.0
20251 C 88.523 36.964 32.473 C 0.0 **** 0.0
20252 H 89.33 36.259 32.672 H 0.0 **** 0.0
20253 H 87.718 36.807 33.191 H 0.0 **** 0.0
20254 H 88.145 36.807 31.463 H 0.0 **** 0.0
20255 H 88.899 37.983 32.567 H 0.0 **** 0.0
20256 C 78.305 90.185 92.226 C 0.0 **** 0.0
20257 H 77.3 89.852 92.486 H 0.0 **** 0.0
20258 H 78.983 89.331 92.234 H 0.0 **** 0.0
20259 H 78.642 90.924 92.952 H 0.0 **** 0.0
20260 H 78.294 90.631 91.231 H 0.0 **** 0.0
20261 C 61.363 74.199 45.306 C 0.0 **** 0.0
20262 H 61.485 73.874 46.339 H 0.0 **** 0.0
20263 H 62.295 74.642 44.952 H 0.0 **** 0.0
20264 H 60.565 74.939 45.25 H 0.0 **** 0.0
20265 H 61.109 73.342 44.683 H 0.0 **** 0.0
20266 C 90.543 5.327 26.706 C 0.0 **** 0.0
20267 H 90.567 5.488 25.628 H 0.0 **** 0.0
20268 H 89.648 4.764 26.969 H 0.0 **** 0.0
20269 H 90.53 6.291 27.216 H 0.0 **** 0.0
20270 H 91.428 4.767 27.01 H 0.0 **** 0.0
20271 C 13.66 72.36 56.513 C 0.0 **** 0.0
20272 H 14.722 72.406 56.756 H 0.0 **** 0.0
20273 H 13.391 71.336 56.255 H 0.0 **** 0.0
20274 H 13.454 73.015 55.666 H 0.0 **** 0.0
20275 H 13.076 72.684 57.374 H 0.0 **** 0.0
20276 C 19.836 6.418 78.221 C 0.0 **** 0.0
20277 H 20.11 6.148 79.241 H 0.0 **** 0.0
20278 H 20.713 6.8 77.699 H 0.0 **** 0.0
20279 H 19.064 7.187 78.245 H 0.0 **** 0.0
20280 H 19.457 5.538 77.702 H 0.0 **** 0.0
20281 C 7.573 84.63 67.796 C 0.0 **** 0.0
20282 H 7.41 83.775 67.139 H 0.0 **** 0.0
20283 H 6.955 85.465 67.466 H 0.0 **** 0.0
20284 H 8.623 84.919 67.761 H 0.0 **** 0.0
20285 H 7.304 84.36 68.817 H 0.0 **** 0.0
20286 C 40.25 78.691 14.206 C 0.0 **** 0.0
20287 H 41.086 78.784 13.513 H 0.0 **** 0.0
20288 H 40.526 79.121 15.169 H 0.0 **** 0.0
20289 H 40.001 77.637 14.336 H 0.0 **** 0.0
20290 H 39.386 79.221 13.805 H 0.0 **** 0.0
20291 C 11.195 4.014 70.636 C 0.0 **** 0.0
20292 H 10.408 3.767 71.349 H 0.0 **** 0.0
20293 H 11.875 3.167 70.538 H 0.0 **** 0.0
20294 H 11.746 4.885 70.991 H 0.0 **** 0.0
20295 H 10.749 4.236 69.666 H 0.0 **** 0.0
20296 C 12.618 6.961 24.636 C 0.0 **** 0.0
20297 H 12.536 7.881 25.215 H 0.0 **** 0.0
20298 H 12.171 6.139 25.195 H 0.0 **** 0.0
20299 H 13.668 6.744 24.445 H 0.0 **** 0.0
20300 H 12.094 7.082 23.688 H 0.0 **** 0.0
20301 C 64.1 56.373 4.521 C 0.0 **** 0.0
20302 H 64.669 55.65 5.106 H 0.0 **** 0.0
20303 H 64.559 57.357 4.615 H 0.0 **** 0.0
20304 H 63.075 56.412 4.89 H 0.0 **** 0.0
20305 H 64.098 56.071 3.474 H 0.0 **** 0.0
20306 C 40.635 26.672 87.506 C 0.0 **** 0.0
20307 H 39.852 27.297 87.934 H 0.0 **** 0.0
20308 H 40.592 26.73 86.418 H 0.0 **** 0.0
20309 H 40.489 25.64 87.822 H 0.0 **** 0.0
20310 H 41.608 27.023 87.85 H 0.0 **** 0.0
20311 C 97.532 19.665 20.965 C 0.0 **** 0.0
20312 H 97.468 19.214 19.975 H 0.0 **** 0.0
20313 H 96.528 19.879 21.333 H 0.0 **** 0.0
20314 H 98.103 20.592 20.906 H 0.0 **** 0.0
20315 H 98.03 18.975 21.647 H 0.0 **** 0.0
20316 C 73.761 68.432 73.259 C 0.0 **** 0.0
20317 H 74.63 67.996 72.765 H 0.0 **** 0.0
20318 H 73.887 68.368 74.34 H 0.0 **** 0.0
20319 H 72.865 67.886 72.964 H 0.0 **** 0.0
20320 H 73.663 69.477 72.965 H 0.0 **** 0.0
20321 C 7.688 28.098 7.815 C 0.0 **** 0.0
20322 H 6.931 28.591 8.425 H 0.0 **** 0.0
20323 H 8.637 28.624 7.918 H 0.0 **** 0.0
20324 H 7.377 28.11 6.77 H 0.0 **** 0.0
20325 H 7.806 27.066 8.146 H 0.0 **** 0.0
20326 C 53.308 12.536 1.697 C 0.0 **** 0.0
20327 H 54.28 12.471 2.187 H 0.0 **** 0.0
20328 H 53.297 13.396 1.026 H 0.0 **** 0.0
20329 H 52.529 12.653 2.45 H 0.0 **** 0.0
20330 H 53.128 11.626 1.125 H 0.0 **** 0.0
20331 C 87.289 10.733 31.818 C 0.0 **** 0.0
20332 H 87.061 10.819 32.88 H 0.0 **** 0.0
20333 H 87.918 9.859 31.651 H 0.0 **** 0.0
20334 H 87.815 11.628 31.486 H 0.0 **** 0.0
20335 H 86.362 10.627 31.255 H 0.0 **** 0.0
20336 C 95.05 19.176 5.706 C 0.0 **** 0.0
20337 H 95.103 19.206 6.794 H 0.0 **** 0.0
20338 H 94.99 18.14 5.373 H 0.0 **** 0.0
20339 H 95.941 19.642 5.287 H 0.0 **** 0.0
20340 H 94.165 19.718 5.371 H 0.0 **** 0.0
20341 C 84.089 75.539 14.541 C 0.0 **** 0.0
20342 H 85.052 75.654 15.037 H 0.0 **** 0.0
20343 H 84.137 75.982 13.546 H 0.0 **** 0.0
20344 H 83.317 76.04 15.126 H 0.0 **** 0.0
20345 H 83.849 74.479 14.456 H 0.0 **** 0.0
20346 C 37.876 90.596 58.925 C 0.0 **** 0.0
20347 H 38.878 90.771 58.533 H 0.0 **** 0.0
20348 H 37.914 90.556 60.014 H 0.0 **** 0.0
20349 H 37.496 89.649 58.539 H 0.0 **** 0.0
20350 H 37.217 91.406 58.613 H 0.0 **** 0.0
20351 C 11.137 23.864 92.519 C 0.0 **** 0.0
20352 H 11.964 24.574 92.512 H 0.0 **** 0.0
20353 H 10.239 24.357 92.893 H 0.0 **** 0.0
20354 H 11.386 23.023 93.165 H 0.0 **** 0.0
20355 H 10.959 23.504 91.506 H 0.0 **** 0.0
20356 C 83.603 72.525 38.078 C 0.0 **** 0.0
20357 H 83.874 73.575 38.191 H 0.0 **** 0.0
20358 H 82.539 72.401 38.281 H 0.0 **** 0.0
20359 H 84.179 71.924 38.782 H 0.0 **** 0.0
20360 H 83.82 72.201 37.06 H 0.0 **** 0.0
20361 C 15.997 3.304 69.312 C 0.0 **** 0.0
20362 H 15.631 4.318 69.477 H 0.0 **** 0.0
20363 H 15.67 2.663 70.131 H 0.0 **** 0.0
20364 H 17.086 3.314 69.27 H 0.0 **** 0.0
20365 H 15.6 2.924 68.371 H 0.0 **** 0.0
20366 C 91.052 52.701 21.653 C 0.0 **** 0.0
20367 H 91.225 53.28 20.746 H 0.0 **** 0.0
20368 H 90.518 51.784 21.402 H 0.0 **** 0.0
20369 H 90.456 53.289 22.351 H 0.0 **** 0.0
20370 H 92.008 52.451 22.112 H 0.0 **** 0.0
20371 C 25.086 70.012 25.475 C 0.0 **** 0.0
20372 H 24.489 69.537 24.697 H 0.0 **** 0.0
20373 H 25.995 70.423 25.036 H 0.0 **** 0.0
20374 H 25.35 69.272 26.231 H 0.0 **** 0.0
20375 H 24.51 70.814 25.937 H 0.0 **** 0.0
20376 C 13.322 12.296 14.459 C 0.0 **** 0.0
20377 H 14.301 11.892 14.715 H 0.0 **** 0.0
20378 H 13.356 13.385 14.502 H 0.0 **** 0.0
20379 H 12.58 11.928 15.168 H 0.0 **** 0.0
20380 H 13.05 11.98 13.452 H 0.0 **** 0.0
20381 C 50.094 84.735 13.438 C 0.0 **** 0.0
20382 H 50.309 83.889 12.785 H 0.0 **** 0.0
20383 H 50.826 84.765 14.246 H 0.0 **** 0.0
20384 H 49.094 84.626 13.857 H 0.0 **** 0.0
20385 H 50.149 85.66 12.863 H 0.0 **** 0.0
20386 C 54.017 1.242 89.332 C 0.0 **** 0.0
20387 H 54.528 1.291 90.294 H 0.0 **** 0.0
20388 H 53.42 2.143 89.191 H 0.0 **** 0.0
20389 H 53.367 0.367 89.311 H 0.0 **** 0.0
20390 H 54.755 1.166 88.533 H 0.0 **** 0.0
20391 C 54.884 70.658 28.995 C 0.0 **** 0.0
20392 H 54.261 70.772 29.882 H 0.0 **** 0.0
20393 H 55.257 69.635 28.943 H 0.0 **** 0.0
20394 H 55.725 71.349 29.051 H 0.0 **** 0.0
20395 H 54.293 70.876 28.106 H 0.0 **** 0.0
20396 C 81.001 34.087 13.791 C 0.0 **** 0.0
20397 H 82.043 33.79 13.67 H 0.0 **** 0.0
20398 H 80.411 33.681 12.969 H 0.0 **** 0.0
20399 H 80.931 35.175 13.787 H 0.0 **** 0.0
20400 H 80.621 33.702 14.737 H 0.0 **** 0.0
20401 C 31.815 41.909 85.41 C 0.0 **** 0.0
20402 H 31.762 41.961 84.322 H 0.0 **** 0.0
20403 H 32.443 41.067 85.703 H 0.0 **** 0.0
20404 H 30.813 41.773 85.816 H 0.0 **** 0.0
20405 H 32.242 42.834 85.797 H 0.0 **** 0.0
20406 C 41.631 42.32 96.907 C 0.0 **** 0.0
20407 H 42.279 41.545 97.315 H 0.0 **** 0.0
20408 H 40.866 41.861 96.28 H 0.0 **** 0.0
20409 H 42.223 43.013 96.309 H 0.0 **** 0.0
20410 H 41.154 42.862 97.725 H 0.0 **** 0.0
20411 C 81.279 21.88 74.77 C 0.0 **** 0.0
20412 H 80.416 22.451 74.429 H 0.0 **** 0.0
20413 H 81.714 21.341 73.928 H 0.0 **** 0.0
20414 H 80.965 21.169 75.534 H 0.0 **** 0.0
20415 H 82.022 22.559 75.189 H 0.0 **** 0.0
20416 C 55.513 12.173 30.5 C 0.0 **** 0.0
20417 H 54.616 11.556 30.537 H 0.0 **** 0.0
20418 H 56.196 11.775 29.748 H 0.0 **** 0.0
20419 H 56.001 12.164 31.474 H 0.0 **** 0.0
20420 H 55.241 13.195 30.239 H 0.0 **** 0.0
20421 C 37.541 29.619 61.424 C 0.0 **** 0.0
20422 H 37.505 28.812 62.157 H 0.0 **** 0.0
20423 H 38.57 29.957 61.306 H 0.0 **** 0.0
20424 H 36.922 30.448 61.767 H 0.0 **** 0.0
20425 H 37.165 29.256 60.467 H 0.0 **** 0.0
20426 C 82.224 16.556 78.748 C 0.0 **** 0.0
20427 H 82.735 16.243 77.838 H 0.0 **** 0.0
20428 H 81.216 16.14 78.76 H 0.0 **** 0.0
20429 H 82.168 17.645 78.777 H 0.0 **** 0.0
20430 H 82.776 16.198 79.617 H 0.0 **** 0.0
20431 C 43.761 69.973 64.985 C 0.0 **** 0.0
20432 H 44.443 70.472 65.675 H 0.0 **** 0.0
20433 H 43.603 70.605 64.111 H 0.0 **** 0.0
20434 H 42.808 69.795 65.483 H 0.0 **** 0.0
20435 H 44.192 69.022 64.673 H 0.0 **** 0.0
20436 C 70.09 48.723 44.214 C 0.0 **** 0.0
20437 H 69.743 47.858 44.781 H 0.0 **** 0.0
20438 H 70.38 49.516 44.904 H 0.0 **** 0.0
20439 H 69.287 49.079 43.568 H 0.0 **** 0.0
20440 H 70.948 48.438 43.605 H 0.0 **** 0.0
20441 C 0.999 40.43 43.822 C 0.0 **** 0.0
20442 H 0.679 40.42 42.78 H 0.0 **** 0.0
20443 H 1.079 39.406 44.187 H 0.0 **** 0.0
20444 H 0.268 40.974 44.42 H 0.0 **** 0.0
20445 H 1.969 40.921 43.899 H 0.0 **** 0.0
20446 C 88.889 2.284 89.166 C 0.0 **** 0.0
20447 H 89.278 2.817 88.298 H 0.0 **** 0.0
20448 H 87.983 2.778 89.519 H 0.0 **** 0.0
20449 H 89.637 2.287 89.959 H 0.0 **** 0.0
20450 H 88.658 1.256 88.888 H 0.0 **** 0.0
20451 C 97.512 78.013 84.615 C 0.0 **** 0.0
20452 H 97.619 78.797 83.865 H 0.0 **** 0.0
20453 H 97.143 77.105 84.14 H 0.0 **** 0.0
20454 H 96.806 78.337 85.38 H 0.0 **** 0.0
20455 H 98.48 77.816 85.075 H 0.0 **** 0.0
20456 C 2.287 66.991 32.898 C 0.0 **** 0.0
20457 H 1.776 67.71 33.538 H 0.0 **** 0.0
20458 H 2.816 67.521 32.105 H 0.0 **** 0.0
20459 H 1.557 66.313 32.457 H 0.0 **** 0.0
20460 H 3.001 66.42 33.492 H 0.0 **** 0.0
20461 C 37.053 71.871 33.906 C 0.0 **** 0.0
20462 H 37.797 72.126 33.151 H 0.0 **** 0.0
20463 H 36.105 72.351 33.658 H 0.0 **** 0.0
20464 H 37.392 72.219 34.882 H 0.0 **** 0.0
20465 H 36.917 70.79 33.933 H 0.0 **** 0.0
20466 C 13.519 89.022 91.241 C 0.0 **** 0.0
20467 H 14.283 89.742 91.535 H 0.0 **** 0.0
20468 H 12.926 89.435 90.425 H 0.0 **** 0.0
20469 H 12.871 88.813 92.092 H 0.0 **** 0.0
20470 H 13.997 88.099 90.913 H 0.0 **** 0.0
20471 C 83.436 65.321 71.094 C 0.0 **** 0.0
20472 H 84.342 65.09 70.534 H 0.0 **** 0.0
20473 H 82.816 66.005 70.514 H 0.0 **** 0.0
20474 H 83.705 65.789 72.042 H 0.0 **** 0.0
20475 H 82.883 64.402 71.286 H 0.0 **** 0.0
20476 C 17.851 7.652 49.822 C 0.0 **** 0.0
20477 H 17.521 7.432 50.837 H 0.0 **** 0.0
20478 H 17.502 8.644 49.534 H 0.0 **** 0.0
20479 H 17.44 6.909 49.138 H 0.0 **** 0.0
20480 H 18.94 7.622 49.779 H 0.0 **** 0.0
20481 C 94.561 23.336 45.695 C 0.0 **** 0.0
20482 H 94.646 23.972 44.814 H 0.0 **** 0.0
20483 H 95.308 22.543 45.644 H 0.0 **** 0.0
20484 H 93.565 22.895 45.73 H 0.0 **** 0.0
20485 H 94.726 23.934 46.591 H 0.0 **** 0.0
20486 C 35.097 70.657 84.326 C 0.0 **** 0.0
20487 H 35.474 70.111 85.191 H 0.0 **** 0.0
20488 H 34.047 70.904 84.483 H 0.0 **** 0.0
20489 H 35.196 70.038 83.434 H 0.0 **** 0.0
20490 H 35.672 71.574 84.197 H 0.0 **** 0.0
20491 C 44.154 70.112 7.336 C 0.0 **** 0.0
20492 H 43.606 70.185 8.275 H 0.0 **** 0.0
20493 H 44.933 70.874 7.31 H 0.0 **** 0.0
20494 H 43.468 70.263 6.503 H 0.0 **** 0.0
20495 H 44.609 69.124 7.258 H 0.0 **** 0.0
20496 C 33.024 82.734 38.221 C 0.0 **** 0.0
20497 H 33.834 83.264 37.719 H 0.0 **** 0.0
20498 H 33.304 82.542 39.257 H 0.0 **** 0.0
20499 H 32.839 81.788 37.713 H 0.0 **** 0.0
20500 H 32.121 83.343 38.195 H 0.0 **** 0.0
20501 C 85.666 86.485 20.263 C 0.0 **** 0.0
20502 H 85.782 86.629 21.337 H 0.0 **** 0.0
20503 H 86.083 85.518 19.98 H 0.0 **** 0.0
20504 H 86.191 87.278 19.731 H 0.0 **** 0.0
20505 H 84.607 86.513 20.005 H 0.0 **** 0.0
20506 C 28.661 2.267 25.938 C 0.0 **** 0.0
20507 H 28.182 3.05 25.349 H 0.0 **** 0.0
20508 H 29.685 2.129 25.592 H 0.0 **** 0.0
20509 H 28.108 1.335 25.82 H 0.0 **** 0.0
20510 H 28.667 2.555 26.989 H 0.0 **** 0.0
20511 C 16.774 8.853 15.44 C 0.0 **** 0.0
20512 H 16.518 9.889 15.659 H 0.0 **** 0.0
20513 H 17.195 8.787 14.436 H 0.0 **** 0.0
20514 H 15.877 8.237 15.5 H 0.0 **** 0.0
20515 H 17.507 8.499 16.166 H 0.0 **** 0.0
20516 C 16.589 5.26 75.268 C 0.0 **** 0.0
20517 H 16.313 4.982 74.251 H 0.0 **** 0.0
20518 H 17.39 4.609 75.618 H 0.0 **** 0.0
20519 H 15.722 5.153 75.921 H 0.0 **** 0.0
20520 H 16.929 6.296 75.282 H 0.0 **** 0.0
20521 C 35.902 78.301 92.121 C 0.0 **** 0.0
20522 H 35.288 77.543 91.635 H 0.0 **** 0.0
20523 H 35.274 78.923 92.759 H 0.0 **** 0.0
20524 H 36.378 78.923 91.362 H 0.0 **** 0.0
20525 H 36.668 77.816 92.725 H 0.0 **** 0.0
20526 C 7.686 61.546 66.227 C 0.0 **** 0.0
20527 H 7.18 60.969 67.001 H 0.0 **** 0.0
20528 H 8.014 62.5 66.642 H 0.0 **** 0.0
20529 H 6.998 61.726 65.401 H 0.0 **** 0.0
20530 H 8.551 60.99 65.866 H 0.0 **** 0.0
20531 C 10.44 70.576 38.63 C 0.0 **** 0.0
20532 H 10.44 70.263 37.586 H 0.0 **** 0.0
20533 H 9.589 71.233 38.812 H 0.0 **** 0.0
20534 H 11.365 71.11 38.849 H 0.0 **** 0.0
20535 H 10.366 69.699 39.272 H 0.0 **** 0.0
20536 C 85.851 34.914 47.416 C 0.0 **** 0.0
20537 H 86.555 35.537 46.864 H 0.0 **** 0.0
20538 H 85.026 34.632 46.761 H 0.0 **** 0.0
20539 H 85.465 35.471 48.269 H 0.0 **** 0.0
20540 H 86.359 34.016 47.767 H 0.0 **** 0.0
20541 C 15.664 41.582 65.496 C 0.0 **** 0.0
20542 H 16.47 41.265 66.159 H 0.0 **** 0.0
20543 H 14.712 41.506 66.021 H 0.0 **** 0.0
20544 H 15.647 40.942 64.614 H 0.0 **** 0.0
20545 H 15.831 42.616 65.192 H 0.0 **** 0.0
20546 C 56.45 89.298 86.953 C 0.0 **** 0.0
20547 H 56.925 89.948 86.218 H 0.0 **** 0.0
20548 H 55.433 89.069 86.632 H 0.0 **** 0.0
20549 H 56.421 89.803 87.919 H 0.0 **** 0.0
20550 H 57.02 88.374 87.043 H 0.0 **** 0.0
20551 C 60.06 13.434 91.328 C 0.0 **** 0.0
20552 H 60.019 12.546 90.698 H 0.0 **** 0.0
20553 H 59.6 14.272 90.804 H 0.0 **** 0.0
20554 H 61.1 13.673 91.552 H 0.0 **** 0.0
20555 H 59.523 13.246 92.257 H 0.0 **** 0.0
20556 C 85.859 64.518 56.646 C 0.0 **** 0.0
20557 H 85.746 64.431 55.566 H 0.0 **** 0.0
20558 H 86.625 65.26 56.872 H 0.0 **** 0.0
20559 H 86.154 63.554 57.059 H 0.0 **** 0.0
20560 H 84.912 64.828 57.087 H 0.0 **** 0.0
20561 C 14.954 46.505 14.308 C 0.0 **** 0.0
20562 H 14.772 45.471 14.013 H 0.0 **** 0.0
20563 H 14.141 47.134 13.944 H 0.0 **** 0.0
20564 H 15.897 46.844 13.879 H 0.0 **** 0.0
20565 H 15.005 46.569 15.394 H 0.0 **** 0.0
20566 C 17.862 87.869 51.574 C 0.0 **** 0.0
20567 H 17.461 88.835 51.88 H 0.0 **** 0.0
20568 H 18.917 87.978 51.32 H 0.0 **** 0.0
20569 H 17.314 87.509 50.703 H 0.0 **** 0.0
20570 H 17.756 87.156 52.391 H 0.0 **** 0.0
20571 C 40.037 75.278 34.494 C 0.0 **** 0.0
20572 H 39.622 75.393 33.492 H 0.0 **** 0.0
20573 H 41.118 75.153 34.427 H 0.0 **** 0.0
20574 H 39.598 74.401 34.97 H 0.0 **** 0.0
20575 H 39.809 76.165 35.085 H 0.0 **** 0.0
20576 C 56.23 55.415 18.762 C 0.0 **** 0.0
20577 H 56.456 56.394 19.186 H 0.0 **** 0.0
20578 H 55.462 55.521 17.995 H 0.0 **** 0.0
20579 H 55.869 54.753 19.549 H 0.0 **** 0.0
20580 H 57.132 54.994 18.318 H 0.0 **** 0.0
20581 C 27.157 79.713 45.215 C 0.0 **** 0.0
20582 H 26.867 79.969 44.196 H 0.0 **** 0.0
20583 H 27.392 78.65 45.269 H 0.0 **** 0.0
20584 H 26.336 79.94 45.895 H 0.0 **** 0.0
20585 H 28.035 80.294 45.499 H 0.0 **** 0.0
20586 C 72.7 75.785 82.628 C 0.0 **** 0.0
20587 H 73.318 76.609 82.986 H 0.0 **** 0.0
20588 H 73.339 74.952 82.335 H 0.0 **** 0.0
20589 H 72.117 76.116 81.768 H 0.0 **** 0.0
20590 H 72.026 75.465 83.422 H 0.0 **** 0.0
20591 C 23.052 78.871 48.754 C 0.0 **** 0.0
20592 H 22.526 79.489 49.482 H 0.0 **** 0.0
20593 H 22.557 78.95 47.786 H 0.0 **** 0.0
20594 H 23.04 77.832 49.085 H 0.0 **** 0.0
20595 H 24.083 79.212 48.665 H 0.0 **** 0.0
20596 C 48.753 10.817 72.524 C 0.0 **** 0.0
20597 H 47.664 10.858 72.518 H 0.0 **** 0.0
20598 H 49.112 10.844 73.553 H 0.0 **** 0.0
20599 H 49.151 11.672 71.978 H 0.0 **** 0.0
20600 H 49.085 9.895 72.047 H 0.0 **** 0.0
20601 C 81.283 94.764 93.021 C 0.0 **** 0.0
20602 H 81.144 94.412 91.999 H 0.0 **** 0.0
20603 H 80.424 94.473 93.626 H 0.0 **** 0.0
20604 H 81.377 95.85 93.021 H 0.0 **** 0.0
20605 H 82.188 94.321 93.438 H 0.0 **** 0.0
20606 C 11.131 33.781 17.532 C 0.0 **** 0.0
20607 H 10.553 34.309 16.773 H 0.0 **** 0.0
20608 H 12.185 33.786 17.255 H 0.0 **** 0.0
20609 H 10.778 32.753 17.607 H 0.0 **** 0.0
20610 H 11.006 34.279 18.494 H 0.0 **** 0.0
20611 C 94.681 93.998 28.955 C 0.0 **** 0.0
20612 H 94.427 94.854 28.33 H 0.0 **** 0.0
20613 H 94.025 93.162 28.709 H 0.0 **** 0.0
20614 H 94.554 94.264 30.004 H 0.0 **** 0.0
20615 H 95.717 93.712 28.775 H 0.0 **** 0.0
20616 C 78.071 73.34 55.594 C 0.0 **** 0.0
20617 H 78.319 73.099 56.627 H 0.0 **** 0.0
20618 H 77.51 72.515 55.154 H 0.0 **** 0.0
20619 H 78.989 73.498 55.027 H 0.0 **** 0.0
20620 H 77.467 74.246 55.567 H 0.0 **** 0.0
20621 C 18.245 81.896 7.696 C 0.0 **** 0.0
20622 H 18.859 81.574 6.854 H 0.0 **** 0.0
20623 H 17.192 81.749 7.455 H 0.0 **** 0.0
20624 H 18.429 82.952 7.896 H 0.0 **** 0.0
20625 H 18.502 81.309 8.578 H 0.0 **** 0.0
20626 C 14.816 6.23 19.102 C 0.0 **** 0.0
20627 H 14.436 5.759 20.01 H 0.0 **** 0.0
20628 H 15.223 7.211 19.346 H 0.0 **** 0.0
20629 H 14.003 6.34 18.384 H 0.0 **** 0.0
20630 H 15.6 5.607 18.671 H 0.0 **** 0.0
20631 C 74.342 38.045 47.471 C 0.0 **** 0.0
20632 H 74.377 37.89 48.549 H 0.0 **** 0.0
20633 H 73.716 38.91 47.248 H 0.0 **** 0.0
20634 H 73.924 37.161 46.99 H 0.0 **** 0.0
20635 H 75.351 38.22 47.096 H 0.0 **** 0.0
20636 C 38.281 80.665 41.044 C 0.0 **** 0.0
20637 H 38.138 80.176 42.008 H 0.0 **** 0.0
20638 H 39.325 80.959 40.938 H 0.0 **** 0.0
20639 H 37.646 81.549 40.988 H 0.0 **** 0.0
20640 H 38.014 79.974 40.244 H 0.0 **** 0.0
20641 C 2.392 29.833 41.155 C 0.0 **** 0.0
20642 H 1.972 29.756 42.158 H 0.0 **** 0.0
20643 H 3.371 30.311 41.207 H 0.0 **** 0.0
20644 H 1.729 30.428 40.527 H 0.0 **** 0.0
20645 H 2.497 28.835 40.728 H 0.0 **** 0.0
20646 C 4.956 95.476 21.638 C 0.0 **** 0.0
20647 H 6.037 95.484 21.502 H 0.0 **** 0.0
20648 H 4.662 94.565 22.159 H 0.0 **** 0.0
20649 H 4.467 95.513 20.665 H 0.0 **** 0.0
20650 H 4.658 96.344 22.227 H 0.0 **** 0.0
20651 C 49.648 47.231 9.743 C 0.0 **** 0.0
20652 H 49.81 47.13 10.816 H 0.0 **** 0.0
20653 H 48.626 46.939 9.501 H 0.0 **** 0.0
20654 H 50.346 46.586 9.209 H 0.0 **** 0.0
20655 H 49.811 48.267 9.447 H 0.0 **** 0.0
20656 C 86.293 79.442 77.151 C 0.0 **** 0.0
20657 H 86.589 79.619 78.185 H 0.0 **** 0.0
20658 H 86.917 80.042 76.488 H 0.0 **** 0.0
20659 H 85.248 79.723 77.02 H 0.0 **** 0.0
20660 H 86.419 78.386 76.913 H 0.0 **** 0.0
20661 C 51.479 44.535 63.893 C 0.0 **** 0.0
20662 H 51.411 44.446 64.977 H 0.0 **** 0.0
20663 H 51.147 45.528 63.588 H 0.0 **** 0.0
20664 H 50.846 43.78 63.426 H 0.0 **** 0.0
20665 H 52.513 44.385 63.58 H 0.0 **** 0.0
20666 C 82.265 41.511 37.091 C 0.0 **** 0.0
20667 H 81.465 41.847 36.432 H 0.0 **** 0.0
20668 H 83.193 41.43 36.524 H 0.0 **** 0.0
20669 H 82.008 40.537 37.508 H 0.0 **** 0.0
20670 H 82.395 42.23 37.9 H 0.0 **** 0.0
20671 C 71.027 43.967 55.01 C 0.0 **** 0.0
20672 H 71.318 44.155 53.976 H 0.0 **** 0.0
20673 H 71.405 44.769 55.645 H 0.0 **** 0.0
20674 H 71.447 43.016 55.338 H 0.0 **** 0.0
20675 H 69.94 43.928 55.08 H 0.0 **** 0.0
20676 C 51.891 40.399 63.785 C 0.0 **** 0.0
20677 H 51.875 40.585 64.859 H 0.0 **** 0.0
20678 H 51.76 41.341 63.252 H 0.0 **** 0.0
20679 H 51.084 39.716 63.522 H 0.0 **** 0.0
20680 H 52.847 39.954 63.509 H 0.0 **** 0.0
20681 C 72.627 2.708 39.807 C 0.0 **** 0.0
20682 H 71.601 2.395 40.002 H 0.0 **** 0.0
20683 H 72.65 3.783 39.626 H 0.0 **** 0.0
20684 H 73.006 2.183 38.931 H 0.0 **** 0.0
20685 H 73.248 2.471 40.671 H 0.0 **** 0.0
20686 C 57.432 39.539 93.631 C 0.0 **** 0.0
20687 H 57.229 39.935 92.637 H 0.0 **** 0.0
20688 H 57.362 38.451 93.61 H 0.0 **** 0.0
20689 H 56.703 39.937 94.337 H 0.0 **** 0.0
20690 H 58.435 39.832 93.941 H 0.0 **** 0.0
20691 C 95.609 61.743 55.266 C 0.0 **** 0.0
20692 H 94.831 62.492 55.119 H 0.0 **** 0.0
20693 H 95.165 60.748 55.239 H 0.0 **** 0.0
20694 H 96.088 61.902 56.233 H 0.0 **** 0.0
20695 H 96.353 61.832 54.474 H 0.0 **** 0.0
20696 C 88.217 43.076 58.28 C 0.0 **** 0.0
20697 H 89.193 42.914 57.821 H 0.0 **** 0.0
20698 H 87.686 42.126 58.346 H 0.0 **** 0.0
20699 H 87.641 43.774 57.673 H 0.0 **** 0.0
20700 H 88.351 43.488 59.28 H 0.0 **** 0.0
20701 C 77.214 29.988 85.54 C 0.0 **** 0.0
20702 H 77.207 31.071 85.666 H 0.0 **** 0.0
20703 H 76.581 29.53 86.3 H 0.0 **** 0.0
20704 H 78.234 29.618 85.645 H 0.0 **** 0.0
20705 H 76.835 29.735 84.55 H 0.0 **** 0.0
20706 C 2.864 63.472 48.87 C 0.0 **** 0.0
20707 H 1.949 63.671 49.427 H 0.0 **** 0.0
20708 H 2.641 63.448 47.803 H 0.0 **** 0.0
20709 H 3.275 62.511 49.178 H 0.0 **** 0.0
20710 H 3.591 64.259 49.072 H 0.0 **** 0.0
20711 C 14.965 1.326 5.097 C 0.0 **** 0.0
20712 H 14.936 1.101 4.031 H 0.0 **** 0.0
20713 H 15.918 0.996 5.512 H 0.0 **** 0.0
20714 H 14.15 0.805 5.6 H 0.0 **** 0.0
20715 H 14.856 2.4 5.245 H 0.0 **** 0.0
20716 C 47.929 31.021 44.873 C 0.0 **** 0.0
20717 H 47.889 31.081 43.786 H 0.0 **** 0.0
20718 H 48.962 31.127 45.205 H 0.0 **** 0.0
20719 H 47.539 30.057 45.198 H 0.0 **** 0.0
20720 H 47.325 31.82 45.304 H 0.0 **** 0.0
20721 C 12.621 19.911 65.708 C 0.0 **** 0.0
20722 H 12.261 19.975 66.735 H 0.0 **** 0.0
20723 H 11.834 19.509 65.071 H 0.0 **** 0.0
20724 H 13.492 19.256 65.669 H 0.0 **** 0.0
20725 H 12.899 20.906 65.359 H 0.0 **** 0.0
20726 C 7.238 95.419 38.38 C 0.0 **** 0.0
20727 H 6.301 95.737 38.837 H 0.0 **** 0.0
20728 H 7.816 96.296 38.089 H 0.0 **** 0.0
20729 H 7.025 94.815 37.498 H 0.0 **** 0.0
20730 H 7.809 94.828 39.096 H 0.0 **** 0.0
20731 C 67.511 29.237 35.488 C 0.0 **** 0.0
20732 H 66.538 29.454 35.047 H 0.0 **** 0.0
20733 H 68.235 29.047 34.695 H 0.0 **** 0.0
20734 H 67.432 28.358 36.127 H 0.0 **** 0.0
20735 H 67.838 30.09 36.083 H 0.0 **** 0.0
20736 C 93.486 30.002 35.855 C 0.0 **** 0.0
20737 H 93.373 29.953 36.938 H 0.0 **** 0.0
20738 H 93.129 29.073 35.411 H 0.0 **** 0.0
20739 H 94.538 30.144 35.606 H 0.0 **** 0.0
20740 H 92.904 30.838 35.466 H 0.0 **** 0.0
20741 C 90.202 58.842 32.045 C 0.0 **** 0.0
20742 H 89.433 58.099 32.254 H 0.0 **** 0.0
20743 H 90.988 58.39 31.439 H 0.0 **** 0.0
20744 H 90.627 59.198 32.984 H 0.0 **** 0.0
20745 H 89.761 59.679 31.505 H 0.0 **** 0.0
20746 C 9.933 0.763 36.251 C 0.0 **** 0.0
20747 H 10.357 0.001 36.906 H 0.0 **** 0.0
20748 H 9.526 0.288 35.359 H 0.0 **** 0.0
20749 H 10.713 1.469 35.965 H 0.0 **** 0.0
20750 H 9.139 1.293 36.777 H 0.0 **** 0.0
20751 C 27.574 28.029 4.792 C 0.0 **** 0.0
20752 H 28.356 28.132 5.544 H 0.0 **** 0.0
20753 H 27.994 28.213 3.803 H 0.0 **** 0.0
20754 H 26.781 28.75 4.99 H 0.0 **** 0.0
20755 H 27.164 27.019 4.83 H 0.0 **** 0.0
20756 C 1.715 81.501 66.216 C 0.0 **** 0.0
20757 H 2.03 80.897 65.365 H 0.0 **** 0.0
20758 H 2.141 81.089 67.131 H 0.0 **** 0.0
20759 H 0.627 81.492 66.285 H 0.0 **** 0.0
20760 H 2.062 82.526 66.082 H 0.0 **** 0.0
20761 C 32.164 9.923 51.256 C 0.0 **** 0.0
20762 H 32.324 10.854 51.8 H 0.0 **** 0.0
20763 H 32.968 9.783 50.533 H 0.0 **** 0.0
20764 H 31.209 9.967 50.734 H 0.0 **** 0.0
20765 H 32.157 9.089 51.958 H 0.0 **** 0.0
20766 C 80.133 94.348 34.696 C 0.0 **** 0.0
20767 H 80.031 94.422 35.779 H 0.0 **** 0.0
20768 H 79.518 95.112 34.221 H 0.0 **** 0.0
20769 H 79.806 93.361 34.368 H 0.0 **** 0.0
20770 H 81.177 94.495 34.419 H 0.0 **** 0.0
20771 C 17.84 7.655 4.275 C 0.0 **** 0.0
20772 H 17.014 7.925 3.618 H 0.0 **** 0.0
20773 H 17.888 8.36 5.106 H 0.0 **** 0.0
20774 H 18.775 7.689 3.716 H 0.0 **** 0.0
20775 H 17.683 6.648 4.661 H 0.0 **** 0.0
20776 C 74.113 34.15 89.231 C 0.0 **** 0.0
20777 H 74.706 34.566 90.046 H 0.0 **** 0.0
20778 H 74.117 34.843 88.39 H 0.0 **** 0.0
20779 H 73.088 33.996 89.57 H 0.0 **** 0.0
20780 H 74.54 33.197 88.92 H 0.0 **** 0.0
20781 C 55.102 55.348 56.118 C 0.0 **** 0.0
20782 H 55.059 56.433 56.214 H 0.0 **** 0.0
20783 H 54.092 54.954 56.007 H 0.0 **** 0.0
20784 H 55.564 54.923 57.009 H 0.0 **** 0.0
20785 H 55.694 55.085 55.241 H 0.0 **** 0.0
20786 C 22.348 7.66 40.117 C 0.0 **** 0.0
20787 H 22.267 8.138 39.14 H 0.0 **** 0.0
20788 H 21.457 7.881 40.704 H 0.0 **** 0.0
20789 H 23.229 8.04 40.635 H 0.0 **** 0.0
20790 H 22.44 6.582 39.987 H 0.0 **** 0.0
20791 C 57.924 19.766 19.661 C 0.0 **** 0.0
20792 H 57.983 20.057 20.71 H 0.0 **** 0.0
20793 H 58.793 19.16 19.403 H 0.0 **** 0.0
20794 H 57.904 20.659 19.037 H 0.0 **** 0.0
20795 H 57.015 19.187 19.496 H 0.0 **** 0.0
20796 C 64.033 16.722 64.68 C 0.0 **** 0.0
20797 H 63.253 15.97 64.558 H 0.0 **** 0.0
20798 H 63.773 17.383 65.507 H 0.0 **** 0.0
20799 H 64.122 17.304 63.763 H 0.0 **** 0.0
20800 H 64.982 16.23 64.892 H 0.0 **** 0.0
20801 C 37.476 50.64 75.116 C 0.0 **** 0.0
20802 H 37.977 51.065 75.986 H 0.0 **** 0.0
20803 H 36.986 51.436 74.555 H 0.0 **** 0.0
20804 H 36.731 49.914 75.444 H 0.0 **** 0.0
20805 H 38.21 50.145 74.48 H 0.0 **** 0.0
20806 C 90.387 71.325 48.154 C 0.0 **** 0.0
20807 H 90.243 71.156 49.221 H 0.0 **** 0.0
20808 H 89.419 71.488 47.679 H 0.0 **** 0.0
20809 H 90.869 70.454 47.71 H 0.0 **** 0.0
20810 H 91.016 72.203 48.007 H 0.0 **** 0.0
20811 C 63.483 14.97 29.159 C 0.0 **** 0.0
20812 H 63.578 14.344 28.272 H 0.0 **** 0.0
20813 H 62.478 15.389 29.202 H 0.0 **** 0.0
20814 H 64.213 15.779 29.112 H 0.0 **** 0.0
20815 H 63.665 14.369 30.05 H 0.0 **** 0.0
20816 C 7.454 57.292 38.258 C 0.0 **** 0.0
20817 H 7.221 56.241 38.428 H 0.0 **** 0.0
20818 H 8.251 57.373 37.519 H 0.0 **** 0.0
20819 H 7.778 57.748 39.194 H 0.0 **** 0.0
20820 H 6.565 57.806 37.893 H 0.0 **** 0.0
20821 C 57.676 6.004 72.463 C 0.0 **** 0.0
20822 H 57.926 6.347 73.467 H 0.0 **** 0.0
20823 H 57.548 4.921 72.47 H 0.0 **** 0.0
20824 H 58.48 6.271 71.777 H 0.0 **** 0.0
20825 H 56.749 6.477 72.138 H 0.0 **** 0.0
20826 C 77.889 38.026 15.169 C 0.0 **** 0.0
20827 H 78.617 38.451 14.478 H 0.0 **** 0.0
20828 H 78.328 37.964 16.165 H 0.0 **** 0.0
20829 H 77.609 37.028 14.833 H 0.0 **** 0.0
20830 H 77.004 38.661 15.2 H 0.0 **** 0.0
20831 C 74.588 69.739 70.21 C 0.0 **** 0.0
20832 H 74.851 68.96 69.495 H 0.0 **** 0.0
20833 H 75.414 69.886 70.907 H 0.0 **** 0.0
20834 H 73.696 69.44 70.761 H 0.0 **** 0.0
20835 H 74.391 70.67 69.678 H 0.0 **** 0.0
20836 C 43.939 20.512 61.785 C 0.0 **** 0.0
20837 H 43.602 19.541 62.147 H 0.0 **** 0.0
20838 H 43.625 21.288 62.484 H 0.0 **** 0.0
20839 H 43.503 20.706 60.806 H 0.0 **** 0.0
20840 H 45.026 20.513 61.706 H 0.0 **** 0.0
20841 C 0.925 17.289 68.397 C 0.0 **** 0.0
20842 H 0.365 17.395 67.468 H 0.0 **** 0.0
20843 H 1.088 18.273 68.837 H 0.0 **** 0.0
20844 H 1.887 16.82 68.189 H 0.0 **** 0.0
20845 H 0.361 16.668 69.092 H 0.0 **** 0.0
20846 C 32.685 53.621 48.957 C 0.0 **** 0.0
20847 H 32.712 53.386 50.021 H 0.0 **** 0.0
20848 H 33.328 52.927 48.416 H 0.0 **** 0.0
20849 H 33.037 54.64 48.801 H 0.0 **** 0.0
20850 H 31.662 53.529 48.591 H 0.0 **** 0.0
20851 C 47.562 52.746 40.559 C 0.0 **** 0.0
20852 H 46.893 52.576 39.715 H 0.0 **** 0.0
20853 H 48.586 52.837 40.198 H 0.0 **** 0.0
20854 H 47.493 51.908 41.252 H 0.0 **** 0.0
20855 H 47.274 53.665 41.071 H 0.0 **** 0.0
20856 C 85.864 98.084 64.207 C 0.0 **** 0.0
20857 H 86.137 98.104 65.262 H 0.0 **** 0.0
20858 H 84.79 98.242 64.107 H 0.0 **** 0.0
20859 H 86.131 97.117 63.781 H 0.0 **** 0.0
20860 H 86.398 98.874 63.679 H 0.0 **** 0.0
20861 C 94.51 11.908 44.736 C 0.0 **** 0.0
20862 H 94.251 11.941 43.678 H 0.0 **** 0.0
20863 H 95.436 11.348 44.866 H 0.0 **** 0.0
20864 H 93.709 11.419 45.291 H 0.0 **** 0.0
20865 H 94.643 12.924 45.109 H 0.0 **** 0.0
20866 C 19.776 91.508 88.296 C 0.0 **** 0.0
20867 H 20.483 91.287 89.095 H 0.0 **** 0.0
20868 H 19.284 92.46 88.498 H 0.0 **** 0.0
20869 H 19.029 90.717 88.242 H 0.0 **** 0.0
20870 H 20.309 91.569 87.347 H 0.0 **** 0.0
20871 C 83.49 97.965 16.878 C 0.0 **** 0.0
20872 H 84.019 97.67 17.785 H 0.0 **** 0.0
20873 H 84.213 98.209 16.099 H 0.0 **** 0.0
20874 H 82.871 98.838 17.087 H 0.0 **** 0.0
20875 H 82.858 97.143 16.543 H 0.0 **** 0.0
20876 C 36.103 83.759 42.876 C 0.0 **** 0.0
20877 H 35.611 83.024 43.514 H 0.0 **** 0.0
20878 H 36.347 83.303 41.917 H 0.0 **** 0.0
20879 H 37.017 84.104 43.359 H 0.0 **** 0.0
20880 H 35.435 84.606 42.717 H 0.0 **** 0.0
20881 C 66.299 39.85 81.25 C 0.0 **** 0.0
20882 H 66.217 39.883 82.337 H 0.0 **** 0.0
20883 H 65.422 40.32 80.806 H 0.0 **** 0.0
20884 H 66.361 38.812 80.923 H 0.0 **** 0.0
20885 H 67.196 40.384 80.938 H 0.0 **** 0.0
20886 C 58.758 83.398 37.872 C 0.0 **** 0.0
20887 H 58.702 84.296 37.257 H 0.0 **** 0.0
20888 H 59.662 82.843 37.624 H 0.0 **** 0.0
20889 H 57.884 82.774 37.683 H 0.0 **** 0.0
20890 H 58.782 83.68 38.925 H 0.0 **** 0.0
20891 C 49.112 22.278 26.1 C 0.0 **** 0.0
20892 H 48.856 22.842 25.203 H 0.0 **** 0.0
20893 H 50.131 21.9 26.013 H 0.0 **** 0.0
20894 H 48.422 21.442 26.213 H 0.0 **** 0.0
20895 H 49.039 22.929 26.972 H 0.0 **** 0.0
20896 C 65.689 80.777 77.255 C 0.0 **** 0.0
20897 H 66.484 80.854 76.514 H 0.0 **** 0.0
20898 H 64.778 81.225 76.858 H 0.0 **** 0.0
20899 H 65.987 81.302 78.163 H 0.0 **** 0.0
20900 H 65.508 79.727 77.485 H 0.0 **** 0.0
20901 C 33.065 74.86 8.745 C 0.0 **** 0.0
20902 H 32.938 74.263 9.648 H 0.0 **** 0.0
20903 H 32.673 75.863 8.916 H 0.0 **** 0.0
20904 H 32.524 74.393 7.922 H 0.0 **** 0.0
20905 H 34.124 74.921 8.496 H 0.0 **** 0.0
20906 C 26.3 34.637 13.971 C 0.0 **** 0.0
20907 H 26.315 34.65 12.881 H 0.0 **** 0.0
20908 H 25.786 33.739 14.316 H 0.0 **** 0.0
20909 H 25.777 35.52 14.338 H 0.0 **** 0.0
20910 H 27.323 34.637 14.348 H 0.0 **** 0.0
20911 C 49.514 19.255 63.582 C 0.0 **** 0.0
20912 H 49.135 18.235 63.652 H 0.0 **** 0.0
20913 H 48.688 19.957 63.694 H 0.0 **** 0.0
20914 H 49.987 19.401 62.611 H 0.0 **** 0.0
20915 H 50.245 19.425 64.372 H 0.0 **** 0.0
20916 C 95.434 24.671 70.262 C 0.0 **** 0.0
20917 H 95.242 23.693 69.819 H 0.0 **** 0.0
20918 H 96.442 24.995 70.003 H 0.0 **** 0.0
20919 H 95.342 24.602 71.346 H 0.0 **** 0.0
20920 H 94.71 25.391 69.881 H 0.0 **** 0.0
20921 C 65.176 85.471 96.173 C 0.0 **** 0.0
20922 H 65.054 85.421 97.255 H 0.0 **** 0.0
20923 H 64.537 84.725 95.7 H 0.0 **** 0.0
20924 H 66.217 85.274 95.916 H 0.0 **** 0.0
20925 H 64.897 86.465 95.822 H 0.0 **** 0.0
20926 C 30.95 65.501 14.589 C 0.0 **** 0.0
20927 H 30.545 66.443 14.22 H 0.0 **** 0.0
20928 H 31.993 65.41 14.282 H 0.0 **** 0.0
20929 H 30.376 64.672 14.175 H 0.0 **** 0.0
20930 H 30.888 65.479 15.677 H 0.0 **** 0.0
20931 C 72.137 86.842 82.575 C 0.0 **** 0.0
20932 H 71.761 85.962 82.053 H 0.0 **** 0.0
20933 H 72.513 86.548 83.556 H 0.0 **** 0.0
20934 H 71.33 87.565 82.696 H 0.0 **** 0.0
20935 H 72.944 87.291 81.996 H 0.0 **** 0.0
20936 C 72.437 37.986 64.556 C 0.0 **** 0.0
20937 H 73.009 37.487 65.339 H 0.0 **** 0.0
20938 H 71.372 37.828 64.728 H 0.0 **** 0.0
20939 H 72.715 37.575 63.586 H 0.0 **** 0.0
20940 H 72.654 39.054 64.574 H 0.0 **** 0.0
20941 C 68.923 57.52 7.1 C 0.0 **** 0.0
20942 H 68.269 58.385 6.996 H 0.0 **** 0.0
20943 H 69.677 57.537 6.312 H 0.0 **** 0.0
20944 H 68.333 56.607 7.02 H 0.0 **** 0.0
20945 H 69.414 57.551 8.073 H 0.0 **** 0.0
20946 C 91.18 63.684 62.235 C 0.0 **** 0.0
20947 H 91.139 63.651 61.146 H 0.0 **** 0.0
20948 H 92.109 63.229 62.577 H 0.0 **** 0.0
20949 H 90.333 63.136 62.647 H 0.0 **** 0.0
20950 H 91.138 64.722 62.567 H 0.0 **** 0.0
20951 C 12.363 36.535 91.487 C 0.0 **** 0.0
20952 H 11.682 36.358 92.32 H 0.0 **** 0.0
20953 H 11.97 37.337 90.861 H 0.0 **** 0.0
20954 H 12.456 35.625 90.895 H 0.0 **** 0.0
20955 H 13.342 36.82 91.872 H 0.0 **** 0.0
20956 C 43.274 52.028 41.752 C 0.0 **** 0.0
20957 H 43.302 51.872 40.674 H 0.0 **** 0.0
20958 H 42.239 52.124 42.078 H 0.0 **** 0.0
20959 H 43.82 52.938 42.001 H 0.0 **** 0.0
20960 H 43.737 51.178 42.254 H 0.0 **** 0.0
20961 C 2.831 68.421 93.191 C 0.0 **** 0.0
20962 H 1.917 67.891 93.46 H 0.0 **** 0.0
20963 H 3.075 68.217 92.148 H 0.0 **** 0.0
20964 H 3.647 68.084 93.829 H 0.0 **** 0.0
20965 H 2.682 69.493 93.327 H 0.0 **** 0.0
20966 C 47.908 31.21 33.99 C 0.0 **** 0.0
20967 H 47.711 31.069 35.053 H 0.0 **** 0.0
20968 H 47.976 32.275 33.771 H 0.0 **** 0.0
20969 H 47.098 30.77 33.409 H 0.0 **** 0.0
20970 H 48.848 30.724 33.728 H 0.0 **** 0.0
20971 C 66.859 47.469 53.206 C 0.0 **** 0.0
20972 H 66.51 46.439 53.272 H 0.0 **** 0.0
20973 H 67.61 47.549 52.42 H 0.0 **** 0.0
20974 H 67.298 47.766 54.159 H 0.0 **** 0.0
20975 H 66.019 48.123 52.974 H 0.0 **** 0.0
20976 C 19.222 18.422 73.404 C 0.0 **** 0.0
20977 H 19.796 18.52 74.325 H 0.0 **** 0.0
20978 H 18.373 19.105 73.432 H 0.0 **** 0.0
20979 H 18.862 17.398 73.308 H 0.0 **** 0.0
20980 H 19.857 18.665 72.553 H 0.0 **** 0.0
20981 C 11.845 62.256 57.626 C 0.0 **** 0.0
20982 H 12.858 62.198 58.025 H 0.0 **** 0.0
20983 H 11.372 61.276 57.692 H 0.0 **** 0.0
20984 H 11.883 62.573 56.584 H 0.0 **** 0.0
20985 H 11.268 62.978 58.205 H 0.0 **** 0.0
20986 C 37.439 48.089 44.358 C 0.0 **** 0.0
20987 H 37.605 48.143 45.434 H 0.0 **** 0.0
20988 H 38.37 47.818 43.861 H 0.0 **** 0.0
20989 H 37.1 49.059 43.994 H 0.0 **** 0.0
20990 H 36.68 47.336 44.145 H 0.0 **** 0.0
20991 C 56.708 89.756 29.079 C 0.0 **** 0.0
20992 H 56.379 90.256 29.99 H 0.0 **** 0.0
20993 H 56.155 88.824 28.957 H 0.0 **** 0.0
20994 H 57.774 89.54 29.149 H 0.0 **** 0.0
20995 H 56.523 90.403 28.222 H 0.0 **** 0.0
20996 C 47.485 35.574 7.045 C 0.0 **** 0.0
20997 H 47.043 35.07 7.904 H 0.0 **** 0.0
20998 H 47.651 36.624 7.285 H 0.0 **** 0.0
20999 H 46.809 35.498 6.193 H 0.0 **** 0.0
21000 H 48.436 35.103 6.797 H 0.0 **** 0.0
21001 C 78.101 1.973 96.872 C 0.0 **** 0.0
21002 H 77.942 2.607 95.999 H 0.0 **** 0.0
21003 H 77.144 1.576 97.211 H 0.0 **** 0.0
21004 H 78.554 2.561 97.67 H 0.0 **** 0.0
21005 H 78.763 1.149 96.606 H 0.0 **** 0.0
21006 C 56.904 36.231 55.235 C 0.0 **** 0.0
21007 H 56.528 35.243 54.97 H 0.0 **** 0.0
21008 H 56.089 36.954 55.186 H 0.0 **** 0.0
21009 H 57.689 36.521 54.536 H 0.0 **** 0.0
21010 H 57.309 36.207 56.246 H 0.0 **** 0.0
21011 C 83.693 39.826 74.16 C 0.0 **** 0.0
21012 H 83.679 39.311 73.2 H 0.0 **** 0.0
21013 H 83.482 39.114 74.958 H 0.0 **** 0.0
21014 H 82.935 40.61 74.162 H 0.0 **** 0.0
21015 H 84.675 40.271 74.32 H 0.0 **** 0.0
21016 C 41.729 29.505 77.595 C 0.0 **** 0.0
21017 H 42.487 29.687 78.357 H 0.0 **** 0.0
21018 H 41.161 30.42 77.423 H 0.0 **** 0.0
21019 H 41.055 28.718 77.933 H 0.0 **** 0.0
21020 H 42.212 29.197 76.668 H 0.0 **** 0.0
21021 C 64.917 18.178 2.98 C 0.0 **** 0.0
21022 H 65.824 18.018 2.397 H 0.0 **** 0.0
21023 H 65.0 19.116 3.53 H 0.0 **** 0.0
21024 H 64.787 17.355 3.681 H 0.0 **** 0.0
21025 H 64.059 18.225 2.31 H 0.0 **** 0.0
21026 C 61.178 68.536 69.323 C 0.0 **** 0.0
21027 H 60.287 68.961 69.784 H 0.0 **** 0.0
21028 H 60.885 67.885 68.499 H 0.0 **** 0.0
21029 H 61.731 67.958 70.064 H 0.0 **** 0.0
21030 H 61.809 69.34 68.944 H 0.0 **** 0.0
21031 C 43.78 10.023 56.102 C 0.0 **** 0.0
21032 H 44.06 10.857 56.745 H 0.0 **** 0.0
21033 H 42.815 9.627 56.422 H 0.0 **** 0.0
21034 H 44.535 9.24 56.173 H 0.0 **** 0.0
21035 H 43.708 10.367 55.071 H 0.0 **** 0.0
21036 C 70.635 21.764 19.069 C 0.0 **** 0.0
21037 H 70.803 21.865 20.141 H 0.0 **** 0.0
21038 H 69.677 21.273 18.896 H 0.0 **** 0.0
21039 H 71.435 21.166 18.631 H 0.0 **** 0.0
21040 H 70.626 22.751 18.608 H 0.0 **** 0.0
21041 C 26.211 91.455 86.075 C 0.0 **** 0.0
21042 H 25.808 91.922 85.176 H 0.0 **** 0.0
21043 H 27.128 91.966 86.369 H 0.0 **** 0.0
21044 H 26.426 90.406 85.875 H 0.0 **** 0.0
21045 H 25.48 91.529 86.88 H 0.0 **** 0.0
21046 C 87.657 33.023 18.687 C 0.0 **** 0.0
21047 H 87.756 32.59 19.682 H 0.0 **** 0.0
21048 H 88.214 33.959 18.641 H 0.0 **** 0.0
21049 H 86.604 33.216 18.479 H 0.0 **** 0.0
21050 H 88.052 32.328 17.947 H 0.0 **** 0.0
21051 C 91.5 97.166 91.55 C 0.0 **** 0.0
21052 H 91.431 96.472 92.388 H 0.0 **** 0.0
21053 H 90.63 97.822 91.549 H 0.0 **** 0.0
21054 H 91.534 96.605 90.616 H 0.0 **** 0.0
21055 H 92.406 97.764 91.648 H 0.0 **** 0.0
21056 C 6.307 51.014 14.932 C 0.0 **** 0.0
21057 H 6.803 51.33 15.85 H 0.0 **** 0.0
21058 H 5.561 51.757 14.649 H 0.0 **** 0.0
21059 H 5.82 50.053 15.094 H 0.0 **** 0.0
21060 H 7.044 50.918 14.135 H 0.0 **** 0.0
21061 C 37.365 35.699 31.865 C 0.0 **** 0.0
21062 H 36.63 34.906 31.73 H 0.0 **** 0.0
21063 H 36.958 36.638 31.489 H 0.0 **** 0.0
21064 H 38.273 35.45 31.317 H 0.0 **** 0.0
21065 H 37.597 35.803 32.925 H 0.0 **** 0.0
21066 C 98.51 37.006 75.039 C 0.0 **** 0.0
21067 H 98.581 37.052 76.126 H 0.0 **** 0.0
21068 H 98.999 37.879 74.607 H 0.0 **** 0.0
21069 H 97.461 36.994 74.744 H 0.0 **** 0.0
21070 H 98.999 36.101 74.681 H 0.0 **** 0.0
21071 C 92.411 44.56 37.93 C 0.0 **** 0.0
21072 H 92.516 44.734 36.859 H 0.0 **** 0.0
21073 H 91.568 43.892 38.109 H 0.0 **** 0.0
21074 H 92.237 45.509 38.437 H 0.0 **** 0.0
21075 H 93.324 44.105 38.315 H 0.0 **** 0.0
21076 C 39.469 87.732 65.985 C 0.0 **** 0.0
21077 H 38.859 88.617 65.803 H 0.0 **** 0.0
21078 H 40.518 87.972 65.807 H 0.0 **** 0.0
21079 H 39.159 86.932 65.313 H 0.0 **** 0.0
21080 H 39.34 87.409 67.018 H 0.0 **** 0.0
21081 C 66.283 85.686 5.886 C 0.0 **** 0.0
21082 H 66.176 84.626 5.654 H 0.0 **** 0.0
21083 H 66.989 86.141 5.192 H 0.0 **** 0.0
21084 H 66.651 85.799 6.906 H 0.0 **** 0.0
21085 H 65.314 86.177 5.794 H 0.0 **** 0.0
21086 C 72.208 24.729 80.54 C 0.0 **** 0.0
21087 H 71.986 25.736 80.187 H 0.0 **** 0.0
21088 H 72.735 24.178 79.761 H 0.0 **** 0.0
21089 H 71.277 24.216 80.782 H 0.0 **** 0.0
21090 H 72.833 24.786 81.431 H 0.0 **** 0.0
21091 C 72.034 3.179 30.011 C 0.0 **** 0.0
21092 H 72.086 2.891 31.06 H 0.0 **** 0.0
21093 H 71.34 2.522 29.487 H 0.0 **** 0.0
21094 H 73.024 3.094 29.561 H 0.0 **** 0.0
21095 H 71.688 4.21 29.934 H 0.0 **** 0.0
21096 C 83.281 50.543 33.64 C 0.0 **** 0.0
21097 H 83.279 50.666 32.557 H 0.0 **** 0.0
21098 H 84.094 51.129 34.07 H 0.0 **** 0.0
21099 H 83.422 49.491 33.886 H 0.0 **** 0.0
21100 H 82.33 50.887 34.046 H 0.0 **** 0.0
21101 C 60.531 4.114 95.733 C 0.0 **** 0.0
21102 H 61.344 3.45 95.441 H 0.0 **** 0.0
21103 H 59.631 3.526 95.915 H 0.0 **** 0.0
21104 H 60.342 4.83 94.933 H 0.0 **** 0.0
21105 H 60.806 4.648 96.642 H 0.0 **** 0.0
21106 C 95.546 65.869 87.479 C 0.0 **** 0.0
21107 H 96.214 66.305 88.222 H 0.0 **** 0.0
21108 H 94.798 66.606 87.187 H 0.0 **** 0.0
21109 H 95.051 64.996 87.905 H 0.0 **** 0.0
21110 H 96.122 65.569 86.604 H 0.0 **** 0.0
21111 C 67.134 34.774 36.594 C 0.0 **** 0.0
21112 H 66.093 35.056 36.754 H 0.0 **** 0.0
21113 H 67.677 34.838 37.537 H 0.0 **** 0.0
21114 H 67.585 35.45 35.868 H 0.0 **** 0.0
21115 H 67.179 33.753 36.217 H 0.0 **** 0.0
21116 C 61.851 5.029 43.553 C 0.0 **** 0.0
21117 H 61.698 5.857 42.86 H 0.0 **** 0.0
21118 H 61.578 5.344 44.561 H 0.0 **** 0.0
21119 H 62.899 4.731 43.536 H 0.0 **** 0.0
21120 H 61.228 4.186 43.254 H 0.0 **** 0.0
21121 C 15.261 77.511 29.978 C 0.0 **** 0.0
21122 H 15.245 77.752 28.915 H 0.0 **** 0.0
21123 H 14.332 77.845 30.441 H 0.0 **** 0.0
21124 H 16.105 78.012 30.452 H 0.0 **** 0.0
21125 H 15.362 76.433 30.104 H 0.0 **** 0.0
21126 C 63.393 48.895 19.566 C 0.0 **** 0.0
21127 H 64.348 49.378 19.772 H 0.0 **** 0.0
21128 H 63.187 48.937 18.496 H 0.0 **** 0.0
21129 H 62.601 49.412 20.109 H 0.0 **** 0.0
21130 H 63.435 47.855 19.888 H 0.0 **** 0.0
21131 C 41.202 31.205 94.054 C 0.0 **** 0.0
21132 H 40.414 31.944 93.906 H 0.0 **** 0.0
21133 H 41.356 31.048 95.122 H 0.0 **** 0.0
21134 H 42.126 31.564 93.602 H 0.0 **** 0.0
21135 H 40.91 30.265 93.587 H 0.0 **** 0.0
21136 C 47.442 61.328 65.692 C 0.0 **** 0.0
21137 H 48.455 61.474 66.067 H 0.0 **** 0.0
21138 H 46.789 61.038 66.515 H 0.0 **** 0.0
21139 H 47.445 60.544 64.935 H 0.0 **** 0.0
21140 H 47.081 62.257 65.251 H 0.0 **** 0.0
21141 C 67.043 29.814 54.775 C 0.0 **** 0.0
21142 H 67.614 28.894 54.644 H 0.0 **** 0.0
21143 H 67.665 30.668 54.508 H 0.0 **** 0.0
21144 H 66.732 29.902 55.816 H 0.0 **** 0.0
21145 H 66.163 29.79 54.133 H 0.0 **** 0.0
21146 C 43.104 38.021 87.096 C 0.0 **** 0.0
21147 H 43.085 38.061 88.185 H 0.0 **** 0.0
21148 H 43.917 38.646 86.725 H 0.0 **** 0.0
21149 H 42.156 38.386 86.703 H 0.0 **** 0.0
21150 H 43.26 36.992 86.773 H 0.0 **** 0.0
21151 C 70.79 71.514 44.588 C 0.0 **** 0.0
21152 H 70.207 72.352 44.971 H 0.0 **** 0.0
21153 H 70.946 70.786 45.385 H 0.0 **** 0.0
21154 H 71.754 71.876 44.231 H 0.0 **** 0.0
21155 H 70.252 71.043 43.765 H 0.0 **** 0.0
21156 C 14.576 14.885 80.894 C 0.0 **** 0.0
21157 H 15.032 15.134 81.853 H 0.0 **** 0.0
21158 H 15.358 14.662 80.168 H 0.0 **** 0.0
21159 H 13.983 15.729 80.543 H 0.0 **** 0.0
21160 H 13.932 14.014 81.014 H 0.0 **** 0.0
21161 C 44.293 75.751 64.727 C 0.0 **** 0.0
21162 H 44.145 75.832 65.803 H 0.0 **** 0.0
21163 H 43.976 74.764 64.39 H 0.0 **** 0.0
21164 H 45.348 75.894 64.493 H 0.0 **** 0.0
21165 H 43.702 76.515 64.221 H 0.0 **** 0.0
21166 C 92.988 73.279 15.034 C 0.0 **** 0.0
21167 H 92.858 73.419 13.961 H 0.0 **** 0.0
21168 H 92.801 72.235 15.289 H 0.0 **** 0.0
21169 H 92.285 73.916 15.571 H 0.0 **** 0.0
21170 H 94.007 73.545 15.315 H 0.0 **** 0.0
21171 C 97.213 73.898 19.212 C 0.0 **** 0.0
21172 H 96.289 74.014 18.646 H 0.0 **** 0.0
21173 H 97.453 72.839 19.304 H 0.0 **** 0.0
21174 H 97.087 74.33 20.205 H 0.0 **** 0.0
21175 H 98.024 74.411 18.693 H 0.0 **** 0.0
21176 C 16.83 2.445 22.989 C 0.0 **** 0.0
21177 H 16.673 3.135 22.16 H 0.0 **** 0.0
21178 H 17.819 2.608 23.416 H 0.0 **** 0.0
21179 H 16.755 1.42 22.625 H 0.0 **** 0.0
21180 H 16.071 2.615 23.752 H 0.0 **** 0.0
21181 C 38.857 44.247 7.772 C 0.0 **** 0.0
21182 H 39.189 44.583 6.789 H 0.0 **** 0.0
21183 H 39.665 44.377 8.492 H 0.0 **** 0.0
21184 H 38.581 43.194 7.721 H 0.0 **** 0.0
21185 H 37.994 44.835 8.084 H 0.0 **** 0.0
21186 C 87.658 9.092 41.333 C 0.0 **** 0.0
21187 H 86.958 9.244 40.512 H 0.0 **** 0.0
21188 H 88.679 9.168 40.958 H 0.0 **** 0.0
21189 H 87.503 8.104 41.765 H 0.0 **** 0.0
21190 H 87.494 9.853 42.096 H 0.0 **** 0.0
21191 C 24.166 2.801 58.264 C 0.0 **** 0.0
21192 H 24.44 2.166 59.106 H 0.0 **** 0.0
21193 H 23.515 2.247 57.588 H 0.0 **** 0.0
21194 H 25.067 3.107 57.732 H 0.0 **** 0.0
21195 H 23.643 3.684 58.631 H 0.0 **** 0.0
21196 C 16.771 35.132 23.248 C 0.0 **** 0.0
21197 H 16.986 35.368 22.206 H 0.0 **** 0.0
21198 H 16.691 36.056 23.821 H 0.0 **** 0.0
21199 H 17.575 34.519 23.656 H 0.0 **** 0.0
21200 H 15.83 34.584 23.309 H 0.0 **** 0.0
21201 C 56.003 75.527 62.04 C 0.0 **** 0.0
21202 H 55.367 76.322 61.65 H 0.0 **** 0.0
21203 H 56.438 74.97 61.21 H 0.0 **** 0.0
21204 H 55.405 74.854 62.656 H 0.0 **** 0.0
21205 H 56.799 75.962 62.644 H 0.0 **** 0.0
21206 C 89.997 51.787 91.785 C 0.0 **** 0.0
21207 H 90.35 51.204 90.935 H 0.0 **** 0.0
21208 H 88.967 51.509 92.014 H 0.0 **** 0.0
21209 H 90.041 52.848 91.541 H 0.0 **** 0.0
21210 H 90.628 51.586 92.651 H 0.0 **** 0.0
21211 C 13.319 76.629 56.696 C 0.0 **** 0.0
21212 H 12.873 77.292 57.438 H 0.0 **** 0.0
21213 H 12.74 76.675 55.774 H 0.0 **** 0.0
21214 H 13.319 75.607 57.076 H 0.0 **** 0.0
21215 H 14.344 76.943 56.499 H 0.0 **** 0.0
21216 C 78.655 54.709 43.938 C 0.0 **** 0.0
21217 H 79.042 54.107 44.76 H 0.0 **** 0.0
21218 H 78.627 54.108 43.029 H 0.0 **** 0.0
21219 H 79.304 55.572 43.784 H 0.0 **** 0.0
21220 H 77.649 55.05 44.181 H 0.0 **** 0.0
21221 C 1.545 65.052 42.833 C 0.0 **** 0.0
21222 H 1.866 64.576 41.907 H 0.0 **** 0.0
21223 H 1.451 64.298 43.615 H 0.0 **** 0.0
21224 H 0.582 65.537 42.678 H 0.0 **** 0.0
21225 H 2.283 65.797 43.133 H 0.0 **** 0.0
21226 C 79.832 60.625 50.411 C 0.0 **** 0.0
21227 H 79.851 59.536 50.448 H 0.0 **** 0.0
21228 H 80.854 61.006 50.399 H 0.0 **** 0.0
21229 H 79.311 61.009 51.287 H 0.0 **** 0.0
21230 H 79.314 60.949 49.508 H 0.0 **** 0.0
21231 C 54.834 72.532 88.981 C 0.0 **** 0.0
21232 H 55.492 72.227 89.794 H 0.0 **** 0.0
21233 H 53.843 72.752 89.378 H 0.0 **** 0.0
21234 H 54.762 71.727 88.25 H 0.0 **** 0.0
21235 H 55.239 73.423 88.501 H 0.0 **** 0.0
21236 C 12.435 88.76 58.588 C 0.0 **** 0.0
21237 H 12.677 89.823 58.582 H 0.0 **** 0.0
21238 H 13.024 88.258 59.356 H 0.0 **** 0.0
21239 H 12.667 88.329 57.614 H 0.0 **** 0.0
21240 H 11.374 88.629 58.8 H 0.0 **** 0.0
21241 C 75.963 97.371 22.87 C 0.0 **** 0.0
21242 H 75.405 97.589 23.781 H 0.0 **** 0.0
21243 H 75.518 96.511 22.369 H 0.0 **** 0.0
21244 H 76.999 97.149 23.123 H 0.0 **** 0.0
21245 H 75.928 98.236 22.207 H 0.0 **** 0.0
21246 C 92.73 82.39 32.644 C 0.0 **** 0.0
21247 H 93.133 82.662 33.62 H 0.0 **** 0.0
21248 H 93.077 83.104 31.896 H 0.0 **** 0.0
21249 H 91.641 82.405 32.684 H 0.0 **** 0.0
21250 H 93.07 81.389 32.377 H 0.0 **** 0.0
21251 C 82.614 67.758 80.044 C 0.0 **** 0.0
21252 H 82.159 67.771 79.053 H 0.0 **** 0.0
21253 H 83.326 68.58 80.127 H 0.0 **** 0.0
21254 H 83.132 66.811 80.194 H 0.0 **** 0.0
21255 H 81.838 67.872 80.801 H 0.0 **** 0.0
21256 C 24.982 54.198 78.705 C 0.0 **** 0.0
21257 H 25.082 55.227 78.36 H 0.0 **** 0.0
21258 H 25.776 53.975 79.418 H 0.0 **** 0.0
21259 H 25.056 53.521 77.854 H 0.0 **** 0.0
21260 H 24.013 54.07 79.187 H 0.0 **** 0.0
21261 C 36.588 70.746 15.825 C 0.0 **** 0.0
21262 H 37.227 70.453 16.659 H 0.0 **** 0.0
21263 H 36.626 71.829 15.703 H 0.0 **** 0.0
21264 H 35.563 70.438 16.028 H 0.0 **** 0.0
21265 H 36.939 70.265 14.913 H 0.0 **** 0.0
21266 C 17.015 12.876 52.391 C 0.0 **** 0.0
21267 H 16.937 12.76 51.309 H 0.0 **** 0.0
21268 H 16.626 11.983 52.88 H 0.0 **** 0.0
21269 H 16.437 13.744 52.706 H 0.0 **** 0.0
21270 H 18.06 13.015 52.666 H 0.0 **** 0.0
21271 C 28.436 16.257 74.661 C 0.0 **** 0.0
21272 H 28.413 16.368 75.745 H 0.0 **** 0.0
21273 H 27.416 16.234 74.277 H 0.0 **** 0.0
21274 H 28.943 15.327 74.402 H 0.0 **** 0.0
21275 H 28.972 17.098 74.221 H 0.0 **** 0.0
21276 C 97.271 63.946 44.224 C 0.0 **** 0.0
21277 H 97.667 63.474 45.123 H 0.0 **** 0.0
21278 H 97.408 63.277 43.373 H 0.0 **** 0.0
21279 H 97.801 64.88 44.04 H 0.0 **** 0.0
21280 H 96.209 64.15 44.358 H 0.0 **** 0.0
21281 C 9.742 87.531 8.454 C 0.0 **** 0.0
21282 H 8.815 87.418 7.893 H 0.0 **** 0.0
21283 H 9.933 88.59 8.629 H 0.0 **** 0.0
21284 H 10.566 87.103 7.883 H 0.0 **** 0.0
21285 H 9.654 87.015 9.41 H 0.0 **** 0.0
21286 C 90.199 75.619 44.879 C 0.0 **** 0.0
21287 H 91.224 75.39 44.59 H 0.0 **** 0.0
21288 H 89.601 74.708 44.851 H 0.0 **** 0.0
21289 H 89.781 76.35 44.187 H 0.0 **** 0.0
21290 H 90.189 76.029 45.889 H 0.0 **** 0.0
21291 C 64.967 29.471 13.486 C 0.0 **** 0.0
21292 H 65.696 29.259 14.268 H 0.0 **** 0.0
21293 H 65.328 30.291 12.865 H 0.0 **** 0.0
21294 H 64.017 29.751 13.942 H 0.0 **** 0.0
21295 H 64.826 28.583 12.87 H 0.0 **** 0.0
21296 C 73.794 57.511 98.024 C 0.0 **** 0.0
21297 H 73.913 56.427 98.048 H 0.0 **** 0.0
21298 H 74.458 57.932 97.268 H 0.0 **** 0.0
21299 H 74.045 57.925 99.0 H 0.0 **** 0.0
21300 H 72.761 57.757 97.778 H 0.0 **** 0.0
21301 C 45.212 25.657 75.505 C 0.0 **** 0.0
21302 H 44.643 26.318 76.159 H 0.0 **** 0.0
21303 H 45.617 26.231 74.671 H 0.0 **** 0.0
21304 H 44.558 24.873 75.123 H 0.0 **** 0.0
21305 H 46.03 25.206 76.067 H 0.0 **** 0.0
21306 C 33.459 43.216 11.409 C 0.0 **** 0.0
21307 H 33.51 43.038 10.335 H 0.0 **** 0.0
21308 H 34.468 43.225 11.823 H 0.0 **** 0.0
21309 H 32.879 42.423 11.881 H 0.0 **** 0.0
21310 H 32.98 44.177 11.595 H 0.0 **** 0.0
21311 C 18.689 19.036 39.175 C 0.0 **** 0.0
21312 H 17.948 18.87 38.393 H 0.0 **** 0.0
21313 H 19.689 18.985 38.743 H 0.0 **** 0.0
21314 H 18.585 18.269 39.942 H 0.0 **** 0.0
21315 H 18.534 20.019 39.619 H 0.0 **** 0.0
21316 C 18.75 6.193 93.35 C 0.0 **** 0.0
21317 H 18.685 6.023 92.275 H 0.0 **** 0.0
21318 H 18.851 5.236 93.863 H 0.0 **** 0.0
21319 H 17.847 6.696 93.694 H 0.0 **** 0.0
21320 H 19.618 6.815 93.568 H 0.0 **** 0.0
21321 C 33.471 11.158 45.642 C 0.0 **** 0.0
21322 H 33.465 11.112 44.553 H 0.0 **** 0.0
21323 H 32.541 11.608 45.991 H 0.0 **** 0.0
21324 H 34.315 11.761 45.975 H 0.0 **** 0.0
21325 H 33.561 10.15 46.047 H 0.0 **** 0.0
21326 C 92.455 39.912 52.807 C 0.0 **** 0.0
21327 H 92.838 39.779 51.795 H 0.0 **** 0.0
21328 H 92.256 38.936 53.251 H 0.0 **** 0.0
21329 H 91.532 40.491 52.773 H 0.0 **** 0.0
21330 H 93.194 40.441 53.409 H 0.0 **** 0.0
21331 C 12.307 8.859 16.337 C 0.0 **** 0.0
21332 H 12.645 9.04 15.316 H 0.0 **** 0.0
21333 H 11.349 8.338 16.316 H 0.0 **** 0.0
21334 H 12.192 9.811 16.855 H 0.0 **** 0.0
21335 H 13.042 8.247 16.859 H 0.0 **** 0.0
21336 C 95.291 94.706 53.692 C 0.0 **** 0.0
21337 H 95.0 95.275 52.81 H 0.0 **** 0.0
21338 H 95.38 95.379 54.545 H 0.0 **** 0.0
21339 H 96.249 94.219 53.511 H 0.0 **** 0.0
21340 H 94.534 93.95 53.903 H 0.0 **** 0.0
21341 C 81.798 57.555 32.968 C 0.0 **** 0.0
21342 H 81.172 56.68 32.789 H 0.0 **** 0.0
21343 H 81.213 58.459 32.798 H 0.0 **** 0.0
21344 H 82.648 57.538 32.287 H 0.0 **** 0.0
21345 H 82.156 57.541 33.997 H 0.0 **** 0.0
21346 C 90.354 11.342 59.878 C 0.0 **** 0.0
21347 H 91.127 11.277 59.113 H 0.0 **** 0.0
21348 H 89.879 12.322 59.832 H 0.0 **** 0.0
21349 H 90.804 11.202 60.861 H 0.0 **** 0.0
21350 H 89.607 10.567 59.706 H 0.0 **** 0.0
21351 C 74.291 38.832 1.536 C 0.0 **** 0.0
21352 H 73.206 38.83 1.64 H 0.0 **** 0.0
21353 H 74.751 38.828 2.525 H 0.0 **** 0.0
21354 H 74.602 39.725 0.994 H 0.0 **** 0.0
21355 H 74.604 37.945 0.986 H 0.0 **** 0.0
21356 C 72.126 5.927 18.493 C 0.0 **** 0.0
21357 H 71.313 6.319 17.882 H 0.0 **** 0.0
21358 H 72.186 6.492 19.423 H 0.0 **** 0.0
21359 H 73.067 6.02 17.95 H 0.0 **** 0.0
21360 H 71.938 4.877 18.717 H 0.0 **** 0.0
21361 C 70.038 9.42 17.622 C 0.0 **** 0.0
21362 H 69.094 9.69 17.148 H 0.0 **** 0.0
21363 H 70.839 9.46 16.883 H 0.0 **** 0.0
21364 H 69.966 8.411 18.026 H 0.0 **** 0.0
21365 H 70.252 10.121 18.429 H 0.0 **** 0.0
21366 C 31.6 47.098 83.579 C 0.0 **** 0.0
21367 H 31.973 46.907 82.573 H 0.0 **** 0.0
21368 H 31.783 48.14 83.842 H 0.0 **** 0.0
21369 H 32.116 46.449 84.287 H 0.0 **** 0.0
21370 H 30.53 46.896 83.614 H 0.0 **** 0.0
21371 C 92.124 64.215 5.555 C 0.0 **** 0.0
21372 H 91.244 63.585 5.684 H 0.0 **** 0.0
21373 H 92.419 64.217 4.506 H 0.0 **** 0.0
21374 H 92.942 63.826 6.162 H 0.0 **** 0.0
21375 H 91.891 65.233 5.869 H 0.0 **** 0.0
21376 C 76.262 32.056 45.428 C 0.0 **** 0.0
21377 H 75.419 32.617 45.832 H 0.0 **** 0.0
21378 H 76.707 32.614 44.604 H 0.0 **** 0.0
21379 H 75.914 31.089 45.067 H 0.0 **** 0.0
21380 H 77.006 31.906 46.21 H 0.0 **** 0.0
21381 C 1.545 61.614 45.196 C 0.0 **** 0.0
21382 H 2.284 61.56 44.397 H 0.0 **** 0.0
21383 H 0.867 62.447 45.007 H 0.0 **** 0.0
21384 H 2.05 61.765 46.149 H 0.0 **** 0.0
21385 H 0.977 60.683 45.228 H 0.0 **** 0.0
21386 C 1.945 69.109 82.726 C 0.0 **** 0.0
21387 H 2.241 68.103 83.021 H 0.0 **** 0.0
21388 H 0.999 69.066 82.186 H 0.0 **** 0.0
21389 H 2.712 69.538 82.081 H 0.0 **** 0.0
21390 H 1.829 69.729 83.615 H 0.0 **** 0.0
21391 C 51.397 26.549 50.817 C 0.0 **** 0.0
21392 H 51.245 26.119 49.827 H 0.0 **** 0.0
21393 H 51.952 25.845 51.437 H 0.0 **** 0.0
21394 H 50.429 26.753 51.276 H 0.0 **** 0.0
21395 H 51.96 27.477 50.727 H 0.0 **** 0.0
21396 C 17.372 60.657 88.266 C 0.0 **** 0.0
21397 H 17.451 60.763 87.184 H 0.0 **** 0.0
21398 H 16.609 59.915 88.503 H 0.0 **** 0.0
21399 H 17.098 61.615 88.707 H 0.0 **** 0.0
21400 H 18.332 60.333 88.67 H 0.0 **** 0.0
21401 C 19.104 55.653 36.746 C 0.0 **** 0.0
21402 H 18.494 56.552 36.66 H 0.0 **** 0.0
21403 H 18.495 54.837 37.137 H 0.0 **** 0.0
21404 H 19.937 55.842 37.422 H 0.0 **** 0.0
21405 H 19.488 55.381 35.763 H 0.0 **** 0.0
21406 C 84.362 82.723 5.326 C 0.0 **** 0.0
21407 H 84.592 82.799 6.389 H 0.0 **** 0.0
21408 H 83.801 81.807 5.141 H 0.0 **** 0.0
21409 H 85.29 82.703 4.754 H 0.0 **** 0.0
21410 H 83.766 83.583 5.022 H 0.0 **** 0.0
21411 C 21.184 6.737 15.041 C 0.0 **** 0.0
21412 H 20.295 6.972 15.626 H 0.0 **** 0.0
21413 H 20.931 6.002 14.276 H 0.0 **** 0.0
21414 H 21.953 6.328 15.698 H 0.0 **** 0.0
21415 H 21.557 7.644 14.566 H 0.0 **** 0.0
21416 C 24.23 29.87 44.889 C 0.0 **** 0.0
21417 H 24.397 28.882 44.46 H 0.0 **** 0.0
21418 H 25.189 30.363 45.049 H 0.0 **** 0.0
21419 H 23.71 29.769 45.842 H 0.0 **** 0.0
21420 H 23.625 30.465 44.205 H 0.0 **** 0.0
21421 C 11.483 17.486 19.719 C 0.0 **** 0.0
21422 H 11.316 18.23 18.94 H 0.0 **** 0.0
21423 H 12.407 17.717 20.249 H 0.0 **** 0.0
21424 H 11.561 16.498 19.266 H 0.0 **** 0.0
21425 H 10.648 17.5 20.42 H 0.0 **** 0.0
21426 C 12.46 61.816 65.779 C 0.0 **** 0.0
21427 H 13.402 62.247 66.117 H 0.0 **** 0.0
21428 H 12.461 60.743 65.975 H 0.0 **** 0.0
21429 H 12.344 61.99 64.709 H 0.0 **** 0.0
21430 H 11.634 62.283 66.315 H 0.0 **** 0.0
21431 C 1.682 70.296 31.709 C 0.0 **** 0.0
21432 H 2.032 70.484 30.693 H 0.0 **** 0.0
21433 H 2.535 70.271 32.387 H 0.0 **** 0.0
21434 H 1.163 69.338 31.742 H 0.0 **** 0.0
21435 H 1.0 71.09 32.011 H 0.0 **** 0.0
21436 C 24.06 59.467 41.332 C 0.0 **** 0.0
21437 H 23.108 58.936 41.331 H 0.0 **** 0.0
21438 H 24.115 60.113 42.209 H 0.0 **** 0.0
21439 H 24.14 60.071 40.429 H 0.0 **** 0.0
21440 H 24.877 58.746 41.361 H 0.0 **** 0.0
21441 C 91.937 22.241 73.976 C 0.0 **** 0.0
21442 H 91.86 22.213 72.889 H 0.0 **** 0.0
21443 H 91.658 23.232 74.335 H 0.0 **** 0.0
21444 H 92.963 22.023 74.273 H 0.0 **** 0.0
21445 H 91.269 21.496 74.407 H 0.0 **** 0.0
21446 C 78.636 67.965 41.357 C 0.0 **** 0.0
21447 H 78.749 68.472 40.398 H 0.0 **** 0.0
21448 H 79.065 68.583 42.146 H 0.0 **** 0.0
21449 H 79.153 67.006 41.324 H 0.0 **** 0.0
21450 H 77.578 67.801 41.558 H 0.0 **** 0.0
21451 C 36.567 41.947 95.539 C 0.0 **** 0.0
21452 H 37.228 41.696 94.71 H 0.0 **** 0.0
21453 H 36.923 42.856 96.025 H 0.0 **** 0.0
21454 H 36.562 41.129 96.259 H 0.0 **** 0.0
21455 H 35.557 42.107 95.163 H 0.0 **** 0.0
21456 C 84.458 60.062 36.374 C 0.0 **** 0.0
21457 H 84.161 60.169 35.331 H 0.0 **** 0.0
21458 H 85.461 59.638 36.424 H 0.0 **** 0.0
21459 H 83.757 59.401 36.884 H 0.0 **** 0.0
21460 H 84.451 61.039 36.855 H 0.0 **** 0.0
21461 C 95.083 95.231 39.654 C 0.0 **** 0.0
21462 H 94.736 94.685 38.777 H 0.0 **** 0.0
21463 H 94.886 94.642 40.55 H 0.0 **** 0.0
21464 H 94.556 96.183 39.722 H 0.0 **** 0.0
21465 H 96.154 95.414 39.567 H 0.0 **** 0.0
21466 C 92.814 65.341 35.1 C 0.0 **** 0.0
21467 H 92.471 66.05 34.347 H 0.0 **** 0.0
21468 H 93.793 65.649 35.469 H 0.0 **** 0.0
21469 H 92.889 64.348 34.655 H 0.0 **** 0.0
21470 H 92.105 65.316 35.927 H 0.0 **** 0.0
21471 C 48.973 46.852 2.666 C 0.0 **** 0.0
21472 H 48.91 47.271 3.67 H 0.0 **** 0.0
21473 H 49.991 46.959 2.291 H 0.0 **** 0.0
21474 H 48.285 47.382 2.007 H 0.0 **** 0.0
21475 H 48.706 45.795 2.696 H 0.0 **** 0.0
21476 C 95.396 79.763 5.509 C 0.0 **** 0.0
21477 H 95.131 78.715 5.37 H 0.0 **** 0.0
21478 H 95.536 79.964 6.571 H 0.0 **** 0.0
21479 H 94.595 80.394 5.122 H 0.0 **** 0.0
21480 H 96.32 79.979 4.972 H 0.0 **** 0.0
21481 C 49.589 51.938 9.41 C 0.0 **** 0.0
21482 H 50.176 52.546 10.099 H 0.0 **** 0.0
21483 H 49.161 51.092 9.947 H 0.0 **** 0.0
21484 H 50.232 51.574 8.609 H 0.0 **** 0.0
21485 H 48.787 52.543 8.986 H 0.0 **** 0.0
21486 C 69.201 92.344 41.343 C 0.0 **** 0.0
21487 H 69.135 91.784 42.276 H 0.0 **** 0.0
21488 H 68.21 92.697 41.06 H 0.0 **** 0.0
21489 H 69.594 91.696 40.558 H 0.0 **** 0.0
21490 H 69.867 93.196 41.477 H 0.0 **** 0.0
21491 C 46.372 47.391 51.334 C 0.0 **** 0.0
21492 H 47.182 47.93 51.826 H 0.0 **** 0.0
21493 H 46.243 47.774 50.321 H 0.0 **** 0.0
21494 H 45.449 47.531 51.895 H 0.0 **** 0.0
21495 H 46.615 46.329 51.293 H 0.0 **** 0.0
21496 C 76.03 4.695 18.663 C 0.0 **** 0.0
21497 H 75.504 4.376 19.563 H 0.0 **** 0.0
21498 H 75.84 5.755 18.489 H 0.0 **** 0.0
21499 H 75.674 4.117 17.81 H 0.0 **** 0.0
21500 H 77.1 4.534 18.792 H 0.0 **** 0.0
21501 C 50.62 45.208 81.906 C 0.0 **** 0.0
21502 H 50.355 45.504 80.892 H 0.0 **** 0.0
21503 H 49.955 44.411 82.238 H 0.0 **** 0.0
21504 H 50.52 46.065 82.573 H 0.0 **** 0.0
21505 H 51.65 44.853 81.923 H 0.0 **** 0.0
21506 C 40.931 50.282 80.777 C 0.0 **** 0.0
21507 H 40.663 50.117 79.733 H 0.0 **** 0.0
21508 H 41.299 49.352 81.209 H 0.0 **** 0.0
21509 H 40.052 50.617 81.328 H 0.0 **** 0.0
21510 H 41.709 51.044 80.836 H 0.0 **** 0.0
21511 C 3.49 92.313 65.778 C 0.0 **** 0.0
21512 H 3.459 93.351 65.449 H 0.0 **** 0.0
21513 H 4.443 91.869 65.488 H 0.0 **** 0.0
21514 H 2.675 91.76 65.312 H 0.0 **** 0.0
21515 H 3.385 92.272 66.862 H 0.0 **** 0.0
21516 C 76.832 91.9 3.857 C 0.0 **** 0.0
21517 H 76.994 92.652 4.63 H 0.0 **** 0.0
21518 H 77.78 91.673 3.368 H 0.0 **** 0.0
21519 H 76.125 92.282 3.121 H 0.0 **** 0.0
21520 H 76.43 90.994 4.311 H 0.0 **** 0.0
21521 C 64.24 60.696 86.735 C 0.0 **** 0.0
21522 H 64.328 61.314 87.629 H 0.0 **** 0.0
21523 H 64.96 61.033 85.989 H 0.0 **** 0.0
21524 H 63.231 60.783 86.332 H 0.0 **** 0.0
21525 H 64.441 59.656 86.991 H 0.0 **** 0.0
21526 C 36.756 12.955 97.818 C 0.0 **** 0.0
21527 H 36.664 13.866 98.409 H 0.0 **** 0.0
21528 H 37.357 13.157 96.931 H 0.0 **** 0.0
21529 H 35.765 12.617 97.516 H 0.0 **** 0.0
21530 H 37.238 12.181 98.416 H 0.0 **** 0.0
21531 C 10.271 88.64 50.654 C 0.0 **** 0.0
21532 H 10.258 88.642 49.564 H 0.0 **** 0.0
21533 H 10.295 89.667 51.019 H 0.0 **** 0.0
21534 H 11.156 88.108 51.004 H 0.0 **** 0.0
21535 H 9.377 88.141 51.026 H 0.0 **** 0.0
21536 C 89.385 23.013 81.619 C 0.0 **** 0.0
21537 H 88.384 23.032 82.05 H 0.0 **** 0.0
21538 H 89.359 22.486 80.665 H 0.0 **** 0.0
21539 H 90.064 22.501 82.3 H 0.0 **** 0.0
21540 H 89.731 24.035 81.461 H 0.0 **** 0.0
21541 C 47.558 46.664 37.397 C 0.0 **** 0.0
21542 H 47.631 46.75 38.481 H 0.0 **** 0.0
21543 H 48.422 46.117 37.017 H 0.0 **** 0.0
21544 H 47.535 47.66 36.954 H 0.0 **** 0.0
21545 H 46.645 46.129 37.136 H 0.0 **** 0.0
21546 C 16.705 55.437 88.479 C 0.0 **** 0.0
21547 H 16.716 55.419 87.389 H 0.0 **** 0.0
21548 H 17.683 55.75 88.847 H 0.0 **** 0.0
21549 H 16.477 54.44 88.856 H 0.0 **** 0.0
21550 H 15.945 56.139 88.823 H 0.0 **** 0.0
21551 C 24.853 50.044 24.198 C 0.0 **** 0.0
21552 H 25.614 50.502 24.83 H 0.0 **** 0.0
21553 H 24.522 49.108 24.649 H 0.0 **** 0.0
21554 H 25.272 49.844 23.212 H 0.0 **** 0.0
21555 H 24.004 50.721 24.102 H 0.0 **** 0.0
21556 C 56.835 84.173 40.992 C 0.0 **** 0.0
21557 H 57.762 84.645 40.665 H 0.0 **** 0.0
21558 H 56.907 83.094 40.848 H 0.0 **** 0.0
21559 H 56.003 84.563 40.407 H 0.0 **** 0.0
21560 H 56.671 84.389 42.048 H 0.0 **** 0.0
21561 C 90.494 76.276 53.781 C 0.0 **** 0.0
21562 H 90.258 76.41 52.725 H 0.0 **** 0.0
21563 H 90.228 77.179 54.33 H 0.0 **** 0.0
21564 H 91.561 76.084 53.892 H 0.0 **** 0.0
21565 H 89.929 75.431 54.174 H 0.0 **** 0.0
21566 C 43.007 75.745 49.174 C 0.0 **** 0.0
21567 H 43.816 75.593 49.888 H 0.0 **** 0.0
21568 H 43.172 76.675 48.63 H 0.0 **** 0.0
21569 H 42.058 75.799 49.707 H 0.0 **** 0.0
21570 H 42.981 74.912 48.471 H 0.0 **** 0.0
21571 C 12.067 95.024 21.737 C 0.0 **** 0.0
21572 H 13.098 95.085 21.389 H 0.0 **** 0.0
21573 H 11.39 95.21 20.903 H 0.0 **** 0.0
21574 H 11.901 95.772 22.513 H 0.0 **** 0.0
21575 H 11.878 94.031 22.144 H 0.0 **** 0.0
21576 C 75.089 9.585 15.467 C 0.0 **** 0.0
21577 H 75.893 8.961 15.858 H 0.0 **** 0.0
21578 H 75.489 10.259 14.71 H 0.0 **** 0.0
21579 H 74.655 10.167 16.28 H 0.0 **** 0.0
21580 H 74.321 8.952 15.023 H 0.0 **** 0.0
21581 C 41.64 75.656 97.475 C 0.0 **** 0.0
21582 H 41.923 76.085 96.514 H 0.0 **** 0.0
21583 H 41.246 76.442 98.121 H 0.0 **** 0.0
21584 H 42.515 75.205 97.943 H 0.0 **** 0.0
21585 H 40.876 74.894 97.322 H 0.0 **** 0.0
21586 C 17.106 69.802 76.24 C 0.0 **** 0.0
21587 H 17.478 70.75 76.628 H 0.0 **** 0.0
21588 H 17.9 69.301 75.685 H 0.0 **** 0.0
21589 H 16.261 69.988 75.577 H 0.0 **** 0.0
21590 H 16.786 69.171 77.069 H 0.0 **** 0.0
21591 C 17.464 57.885 77.638 C 0.0 **** 0.0
21592 H 17.103 58.897 77.823 H 0.0 **** 0.0
21593 H 17.095 57.539 76.672 H 0.0 **** 0.0
21594 H 17.102 57.222 78.424 H 0.0 **** 0.0
21595 H 18.554 57.883 77.634 H 0.0 **** 0.0
21596 C 53.192 45.785 74.664 C 0.0 **** 0.0
21597 H 52.574 44.986 74.255 H 0.0 **** 0.0
21598 H 53.042 46.695 74.082 H 0.0 **** 0.0
21599 H 54.241 45.493 74.617 H 0.0 **** 0.0
21600 H 52.912 45.966 75.702 H 0.0 **** 0.0
21601 C 90.224 6.967 37.484 C 0.0 **** 0.0
21602 H 91.025 6.273 37.229 H 0.0 **** 0.0
21603 H 89.735 6.636 38.4 H 0.0 **** 0.0
21604 H 89.497 6.996 36.673 H 0.0 **** 0.0
21605 H 90.641 7.963 37.634 H 0.0 **** 0.0
21606 C 67.768 7.38 19.936 C 0.0 **** 0.0
21607 H 67.981 7.049 18.919 H 0.0 **** 0.0
21608 H 68.557 7.035 20.603 H 0.0 **** 0.0
21609 H 66.812 6.966 20.258 H 0.0 **** 0.0
21610 H 67.72 8.468 19.961 H 0.0 **** 0.0
21611 C 57.705 46.078 44.623 C 0.0 **** 0.0
21612 H 57.835 45.566 43.669 H 0.0 **** 0.0
21613 H 58.083 45.448 45.428 H 0.0 **** 0.0
21614 H 56.646 46.279 44.785 H 0.0 **** 0.0
21615 H 58.255 47.019 44.608 H 0.0 **** 0.0
21616 C 25.133 21.906 52.816 C 0.0 **** 0.0
21617 H 24.84 22.699 52.129 H 0.0 **** 0.0
21618 H 26.064 21.453 52.473 H 0.0 **** 0.0
21619 H 24.35 21.147 52.849 H 0.0 **** 0.0
21620 H 25.277 22.323 53.813 H 0.0 **** 0.0
21621 C 14.681 1.842 97.162 C 0.0 **** 0.0
21622 H 14.674 1.842 96.073 H 0.0 **** 0.0
21623 H 15.085 0.896 97.523 H 0.0 **** 0.0
21624 H 13.663 1.967 97.532 H 0.0 **** 0.0
21625 H 15.301 2.663 97.521 H 0.0 **** 0.0
21626 C 92.881 29.432 28.345 C 0.0 **** 0.0
21627 H 92.824 28.734 27.51 H 0.0 **** 0.0
21628 H 92.208 30.27 28.165 H 0.0 **** 0.0
21629 H 93.903 29.8 28.44 H 0.0 **** 0.0
21630 H 92.592 28.923 29.264 H 0.0 **** 0.0
21631 C 8.838 12.58 43.513 C 0.0 **** 0.0
21632 H 8.836 12.58 42.423 H 0.0 **** 0.0
21633 H 8.087 11.878 43.877 H 0.0 **** 0.0
21634 H 8.607 13.581 43.876 H 0.0 **** 0.0
21635 H 9.821 12.28 43.874 H 0.0 **** 0.0
21636 C 81.113 53.079 68.595 C 0.0 **** 0.0
21637 H 81.735 53.608 69.317 H 0.0 **** 0.0
21638 H 81.04 52.029 68.879 H 0.0 **** 0.0
21639 H 81.562 53.157 67.604 H 0.0 **** 0.0
21640 H 80.118 53.522 68.579 H 0.0 **** 0.0
21641 C 58.705 80.537 57.984 C 0.0 **** 0.0
21642 H 59.396 81.27 57.567 H 0.0 **** 0.0
21643 H 57.687 80.923 57.923 H 0.0 **** 0.0
21644 H 58.961 80.349 59.027 H 0.0 **** 0.0
21645 H 58.776 79.608 57.419 H 0.0 **** 0.0
21646 C 73.218 9.884 22.089 C 0.0 **** 0.0
21647 H 73.232 9.948 21.001 H 0.0 **** 0.0
21648 H 72.944 10.852 22.507 H 0.0 **** 0.0
21649 H 74.208 9.6 22.448 H 0.0 **** 0.0
21650 H 72.49 9.134 22.399 H 0.0 **** 0.0
21651 C 43.142 49.547 95.116 C 0.0 **** 0.0
21652 H 43.277 50.042 94.154 H 0.0 **** 0.0
21653 H 43.921 48.797 95.251 H 0.0 **** 0.0
21654 H 42.165 49.064 95.141 H 0.0 **** 0.0
21655 H 43.203 50.284 95.916 H 0.0 **** 0.0
21656 C 97.435 68.322 84.383 C 0.0 **** 0.0
21657 H 97.771 67.364 84.78 H 0.0 **** 0.0
21658 H 96.345 68.353 84.383 H 0.0 **** 0.0
21659 H 97.803 68.442 83.364 H 0.0 **** 0.0
21660 H 97.822 69.129 85.006 H 0.0 **** 0.0
21661 C 43.174 16.546 92.154 C 0.0 **** 0.0
21662 H 43.06 16.536 91.07 H 0.0 **** 0.0
21663 H 42.933 15.56 92.553 H 0.0 **** 0.0
21664 H 42.499 17.287 92.583 H 0.0 **** 0.0
21665 H 44.202 16.8 92.409 H 0.0 **** 0.0
21666 C 80.382 75.882 48.027 C 0.0 **** 0.0
21667 H 80.813 76.21 48.972 H 0.0 **** 0.0
21668 H 80.62 74.83 47.865 H 0.0 **** 0.0
21669 H 80.794 76.478 47.213 H 0.0 **** 0.0
21670 H 79.3 76.008 48.058 H 0.0 **** 0.0
21671 C 0.671 35.664 79.555 C 0.0 **** 0.0
21672 H 0.094 34.789 79.852 H 0.0 **** 0.0
21673 H 1.442 35.366 78.844 H 0.0 **** 0.0
21674 H 1.138 36.107 80.434 H 0.0 **** 0.0
21675 H 0.009 36.394 79.089 H 0.0 **** 0.0
21676 C 57.01 95.476 90.618 C 0.0 **** 0.0
21677 H 56.607 94.641 90.044 H 0.0 **** 0.0
21678 H 56.875 95.284 91.682 H 0.0 **** 0.0
21679 H 56.485 96.391 90.344 H 0.0 **** 0.0
21680 H 58.072 95.588 90.4 H 0.0 **** 0.0
21681 C 94.186 88.898 61.77 C 0.0 **** 0.0
21682 H 94.141 89.353 60.781 H 0.0 **** 0.0
21683 H 93.348 89.252 62.371 H 0.0 **** 0.0
21684 H 95.123 89.172 62.254 H 0.0 **** 0.0
21685 H 94.131 87.813 61.674 H 0.0 **** 0.0
21686 C 95.979 33.09 27.159 C 0.0 **** 0.0
21687 H 95.562 32.715 28.094 H 0.0 **** 0.0
21688 H 95.192 33.571 26.578 H 0.0 **** 0.0
21689 H 96.395 32.259 26.589 H 0.0 **** 0.0
21690 H 96.765 33.812 27.376 H 0.0 **** 0.0
21691 C 32.958 70.719 21.096 C 0.0 **** 0.0
21692 H 33.275 70.516 22.119 H 0.0 **** 0.0
21693 H 31.969 70.292 20.931 H 0.0 **** 0.0
21694 H 33.668 70.273 20.4 H 0.0 **** 0.0
21695 H 32.921 71.797 20.936 H 0.0 **** 0.0
21696 C 13.494 1.676 1.701 C 0.0 **** 0.0
21697 H 13.405 1.924 0.644 H 0.0 **** 0.0
21698 H 14.371 1.047 1.854 H 0.0 **** 0.0
21699 H 12.601 1.141 2.025 H 0.0 **** 0.0
21700 H 13.599 2.593 2.281 H 0.0 **** 0.0
21701 C 59.458 69.264 39.212 C 0.0 **** 0.0
21702 H 59.828 68.535 38.492 H 0.0 **** 0.0
21703 H 58.376 69.167 39.303 H 0.0 **** 0.0
21704 H 59.705 70.269 38.872 H 0.0 **** 0.0
21705 H 59.922 69.084 40.182 H 0.0 **** 0.0
21706 C 76.977 8.751 79.715 C 0.0 **** 0.0
21707 H 77.512 8.901 80.653 H 0.0 **** 0.0
21708 H 76.294 9.585 79.549 H 0.0 **** 0.0
21709 H 76.41 7.821 79.764 H 0.0 **** 0.0
21710 H 77.692 8.698 78.894 H 0.0 **** 0.0
21711 C 67.266 82.105 40.063 C 0.0 **** 0.0
21712 H 67.355 81.434 39.209 H 0.0 **** 0.0
21713 H 66.359 82.702 39.963 H 0.0 **** 0.0
21714 H 68.133 82.764 40.098 H 0.0 **** 0.0
21715 H 67.217 81.52 40.981 H 0.0 **** 0.0
21716 C 91.145 90.602 3.168 C 0.0 **** 0.0
21717 H 90.833 91.386 3.859 H 0.0 **** 0.0
21718 H 90.64 89.67 3.425 H 0.0 **** 0.0
21719 H 92.224 90.464 3.24 H 0.0 **** 0.0
21720 H 90.882 90.89 2.15 H 0.0 **** 0.0
21721 C 23.779 72.97 1.385 C 0.0 **** 0.0
21722 H 24.437 73.342 2.171 H 0.0 **** 0.0
21723 H 22.742 73.046 1.713 H 0.0 **** 0.0
21724 H 24.019 71.928 1.174 H 0.0 **** 0.0
21725 H 23.92 73.565 0.482 H 0.0 **** 0.0
21726 C 41.692 9.087 9.348 C 0.0 **** 0.0
21727 H 42.138 8.242 8.823 H 0.0 **** 0.0
21728 H 41.186 9.734 8.631 H 0.0 **** 0.0
21729 H 42.473 9.65 9.858 H 0.0 **** 0.0
21730 H 40.972 8.72 10.079 H 0.0 **** 0.0
21731 C 76.288 57.553 8.321 C 0.0 **** 0.0
21732 H 75.604 57.157 7.571 H 0.0 **** 0.0
21733 H 76.336 56.868 9.167 H 0.0 **** 0.0
21734 H 75.931 58.526 8.66 H 0.0 **** 0.0
21735 H 77.281 57.663 7.885 H 0.0 **** 0.0
21736 C 48.505 77.37 20.298 C 0.0 **** 0.0
21737 H 48.348 76.953 21.293 H 0.0 **** 0.0
21738 H 47.876 76.843 19.58 H 0.0 **** 0.0
21739 H 49.552 77.255 20.018 H 0.0 **** 0.0
21740 H 48.244 78.428 20.303 H 0.0 **** 0.0
21741 C 85.539 62.054 65.863 C 0.0 **** 0.0
21742 H 84.555 62.265 66.28 H 0.0 **** 0.0
21743 H 85.433 61.403 64.995 H 0.0 **** 0.0
21744 H 86.154 61.56 66.615 H 0.0 **** 0.0
21745 H 86.014 62.988 65.561 H 0.0 **** 0.0
21746 C 93.186 74.319 25.404 C 0.0 **** 0.0
21747 H 92.904 74.936 24.551 H 0.0 **** 0.0
21748 H 94.267 74.36 25.541 H 0.0 **** 0.0
21749 H 92.881 73.288 25.225 H 0.0 **** 0.0
21750 H 92.692 74.693 26.301 H 0.0 **** 0.0
21751 C 31.606 65.857 63.994 C 0.0 **** 0.0
21752 H 31.994 66.575 64.717 H 0.0 **** 0.0
21753 H 32.432 65.29 63.565 H 0.0 **** 0.0
21754 H 31.08 66.39 63.202 H 0.0 **** 0.0
21755 H 30.917 65.176 64.493 H 0.0 **** 0.0
21756 C 77.651 73.286 94.037 C 0.0 **** 0.0
21757 H 78.638 73.243 94.5 H 0.0 **** 0.0
21758 H 77.3 74.318 94.027 H 0.0 **** 0.0
21759 H 76.956 72.671 94.608 H 0.0 **** 0.0
21760 H 77.713 72.913 93.015 H 0.0 **** 0.0
21761 C 60.527 40.842 17.015 C 0.0 **** 0.0
21762 H 60.35 39.831 16.649 H 0.0 **** 0.0
21763 H 60.731 40.81 18.085 H 0.0 **** 0.0
21764 H 59.644 41.454 16.831 H 0.0 **** 0.0
21765 H 61.382 41.272 16.494 H 0.0 **** 0.0
21766 C 48.039 10.822 26.06 C 0.0 **** 0.0
21767 H 48.081 11.909 25.992 H 0.0 **** 0.0
21768 H 47.024 10.484 25.851 H 0.0 **** 0.0
21769 H 48.326 10.511 27.065 H 0.0 **** 0.0
21770 H 48.724 10.386 25.334 H 0.0 **** 0.0
21771 C 51.897 32.572 73.756 C 0.0 **** 0.0
21772 H 51.77 32.714 72.683 H 0.0 **** 0.0
21773 H 52.958 32.601 74.003 H 0.0 **** 0.0
21774 H 51.482 31.606 74.045 H 0.0 **** 0.0
21775 H 51.377 33.366 74.292 H 0.0 **** 0.0
21776 C 61.34 92.252 26.447 C 0.0 **** 0.0
21777 H 61.355 92.297 25.358 H 0.0 **** 0.0
21778 H 60.981 93.202 26.844 H 0.0 **** 0.0
21779 H 62.347 92.059 26.816 H 0.0 **** 0.0
21780 H 60.675 91.45 26.767 H 0.0 **** 0.0
21781 C 52.823 67.258 73.109 C 0.0 **** 0.0
21782 H 52.626 67.043 72.058 H 0.0 **** 0.0
21783 H 52.98 68.329 73.237 H 0.0 **** 0.0
21784 H 53.715 66.719 73.428 H 0.0 **** 0.0
21785 H 51.972 66.94 73.71 H 0.0 **** 0.0
21786 C 2.899 96.2 47.154 C 0.0 **** 0.0
21787 H 3.061 96.063 46.085 H 0.0 **** 0.0
21788 H 2.207 97.028 47.313 H 0.0 **** 0.0
21789 H 3.849 96.422 47.639 H 0.0 **** 0.0
21790 H 2.478 95.288 47.577 H 0.0 **** 0.0
21791 C 31.264 53.388 95.637 C 0.0 **** 0.0
21792 H 32.025 53.106 96.364 H 0.0 **** 0.0
21793 H 31.298 54.466 95.477 H 0.0 **** 0.0
21794 H 30.28 53.107 96.014 H 0.0 **** 0.0
21795 H 31.452 52.874 94.695 H 0.0 **** 0.0
21796 C 92.123 78.733 8.791 C 0.0 **** 0.0
21797 H 92.219 77.992 7.997 H 0.0 **** 0.0
21798 H 91.192 79.284 8.663 H 0.0 **** 0.0
21799 H 92.965 79.424 8.745 H 0.0 **** 0.0
21800 H 92.119 78.23 9.758 H 0.0 **** 0.0
21801 C 85.53 94.195 16.465 C 0.0 **** 0.0
21802 H 86.274 93.412 16.612 H 0.0 **** 0.0
21803 H 84.801 94.16 17.275 H 0.0 **** 0.0
21804 H 85.023 94.041 15.513 H 0.0 **** 0.0
21805 H 86.023 95.167 16.461 H 0.0 **** 0.0
21806 C 95.534 58.768 49.324 C 0.0 **** 0.0
21807 H 94.533 58.734 49.753 H 0.0 **** 0.0
21808 H 96.001 59.722 49.567 H 0.0 **** 0.0
21809 H 95.469 58.661 48.241 H 0.0 **** 0.0
21810 H 96.133 57.955 49.734 H 0.0 **** 0.0
21811 C 80.578 7.058 93.056 C 0.0 **** 0.0
21812 H 80.284 8.085 93.277 H 0.0 **** 0.0
21813 H 80.077 6.724 92.147 H 0.0 **** 0.0
21814 H 80.293 6.413 93.887 H 0.0 **** 0.0
21815 H 81.658 7.013 92.914 H 0.0 **** 0.0
21816 C 3.921 72.477 34.075 C 0.0 **** 0.0
21817 H 3.751 72.481 32.998 H 0.0 **** 0.0
21818 H 4.934 72.82 34.284 H 0.0 **** 0.0
21819 H 3.792 71.465 34.459 H 0.0 **** 0.0
21820 H 3.205 73.143 34.557 H 0.0 **** 0.0
21821 C 87.758 81.753 45.975 C 0.0 **** 0.0
21822 H 87.752 81.783 47.064 H 0.0 **** 0.0
21823 H 88.328 80.886 45.639 H 0.0 **** 0.0
21824 H 88.218 82.662 45.588 H 0.0 **** 0.0
21825 H 86.734 81.679 45.608 H 0.0 **** 0.0
21826 C 94.227 94.209 76.218 C 0.0 **** 0.0
21827 H 93.28 94.653 75.91 H 0.0 **** 0.0
21828 H 94.624 94.756 77.073 H 0.0 **** 0.0
21829 H 94.936 94.259 75.392 H 0.0 **** 0.0
21830 H 94.066 93.167 76.496 H 0.0 **** 0.0
21831 C 36.015 14.256 21.798 C 0.0 **** 0.0
21832 H 35.348 14.047 22.634 H 0.0 **** 0.0
21833 H 35.806 15.252 21.406 H 0.0 **** 0.0
21834 H 35.858 13.516 21.013 H 0.0 **** 0.0
21835 H 37.05 14.21 22.139 H 0.0 **** 0.0
21836 C 6.233 39.725 73.901 C 0.0 **** 0.0
21837 H 5.874 39.274 74.827 H 0.0 **** 0.0
21838 H 6.554 40.748 74.096 H 0.0 **** 0.0
21839 H 5.43 39.729 73.165 H 0.0 **** 0.0
21840 H 7.074 39.146 73.519 H 0.0 **** 0.0
21841 C 57.743 75.015 81.653 C 0.0 **** 0.0
21842 H 57.907 75.394 80.644 H 0.0 **** 0.0
21843 H 57.065 75.683 82.186 H 0.0 **** 0.0
21844 H 58.695 74.966 82.181 H 0.0 **** 0.0
21845 H 57.305 74.019 81.599 H 0.0 **** 0.0
21846 C 91.035 74.329 41.559 C 0.0 **** 0.0
21847 H 90.68 73.983 40.589 H 0.0 **** 0.0
21848 H 90.183 74.505 42.217 H 0.0 **** 0.0
21849 H 91.593 75.257 41.432 H 0.0 **** 0.0
21850 H 91.684 73.572 41.999 H 0.0 **** 0.0
21851 C 88.477 93.479 79.819 C 0.0 **** 0.0
21852 H 87.907 93.489 78.89 H 0.0 **** 0.0
21853 H 89.535 93.34 79.595 H 0.0 **** 0.0
21854 H 88.129 92.662 80.45 H 0.0 **** 0.0
21855 H 88.338 94.426 80.341 H 0.0 **** 0.0
21856 C 56.97 17.641 39.457 C 0.0 **** 0.0
21857 H 56.556 17.519 38.456 H 0.0 **** 0.0
21858 H 56.158 17.794 40.169 H 0.0 **** 0.0
21859 H 57.635 18.505 39.473 H 0.0 **** 0.0
21860 H 57.53 16.747 39.73 H 0.0 **** 0.0
21861 C 74.785 34.768 66.118 C 0.0 **** 0.0
21862 H 75.05 35.814 65.969 H 0.0 **** 0.0
21863 H 74.705 34.563 67.186 H 0.0 **** 0.0
21864 H 75.557 34.133 65.683 H 0.0 **** 0.0
21865 H 73.83 34.562 65.635 H 0.0 **** 0.0
21866 C 69.537 3.753 67.455 C 0.0 **** 0.0
21867 H 68.915 3.296 66.685 H 0.0 **** 0.0
21868 H 70.371 4.274 66.986 H 0.0 **** 0.0
21869 H 69.92 2.978 68.119 H 0.0 **** 0.0
21870 H 68.942 4.462 68.03 H 0.0 **** 0.0
21871 C 87.58 64.238 28.984 C 0.0 **** 0.0
21872 H 87.518 64.39 27.907 H 0.0 **** 0.0
21873 H 87.465 63.177 29.208 H 0.0 **** 0.0
21874 H 86.787 64.801 29.476 H 0.0 **** 0.0
21875 H 88.549 64.583 29.345 H 0.0 **** 0.0
21876 C 19.409 89.333 42.555 C 0.0 **** 0.0
21877 H 18.901 88.846 43.388 H 0.0 **** 0.0
21878 H 20.314 89.822 42.918 H 0.0 **** 0.0
21879 H 18.747 90.077 42.111 H 0.0 **** 0.0
21880 H 19.674 88.588 41.805 H 0.0 **** 0.0
21881 C 20.83 70.184 84.345 C 0.0 **** 0.0
21882 H 20.444 71.022 83.765 H 0.0 **** 0.0
21883 H 20.928 70.48 85.39 H 0.0 **** 0.0
21884 H 21.807 69.893 83.957 H 0.0 **** 0.0
21885 H 20.143 69.342 84.268 H 0.0 **** 0.0
21886 C 51.783 23.921 6.145 C 0.0 **** 0.0
21887 H 51.635 23.549 7.158 H 0.0 **** 0.0
21888 H 52.755 24.41 6.076 H 0.0 **** 0.0
21889 H 50.998 24.637 5.902 H 0.0 **** 0.0
21890 H 51.744 23.088 5.443 H 0.0 **** 0.0
21891 C 20.167 14.375 51.098 C 0.0 **** 0.0
21892 H 19.447 14.828 50.418 H 0.0 **** 0.0
21893 H 19.975 14.721 52.114 H 0.0 **** 0.0
21894 H 21.177 14.66 50.802 H 0.0 **** 0.0
21895 H 20.07 13.29 51.059 H 0.0 **** 0.0
21896 C 72.525 56.937 43.689 C 0.0 **** 0.0
21897 H 72.532 56.962 44.779 H 0.0 **** 0.0
21898 H 71.898 57.745 43.312 H 0.0 **** 0.0
21899 H 72.128 55.98 43.351 H 0.0 **** 0.0
21900 H 73.542 57.06 43.317 H 0.0 **** 0.0
21901 C 30.68 69.564 76.692 C 0.0 **** 0.0
21902 H 29.848 70.085 76.217 H 0.0 **** 0.0
21903 H 30.313 69.006 77.553 H 0.0 **** 0.0
21904 H 31.423 70.291 77.019 H 0.0 **** 0.0
21905 H 31.133 68.877 75.978 H 0.0 **** 0.0
21906 C 50.231 81.22 22.638 C 0.0 **** 0.0
21907 H 49.222 81.576 22.43 H 0.0 **** 0.0
21908 H 50.702 80.901 21.708 H 0.0 **** 0.0
21909 H 50.184 80.378 23.329 H 0.0 **** 0.0
21910 H 50.815 82.024 23.085 H 0.0 **** 0.0
21911 C 53.009 36.632 4.987 C 0.0 **** 0.0
21912 H 52.874 37.713 5.011 H 0.0 **** 0.0
21913 H 54.074 36.4 4.953 H 0.0 **** 0.0
21914 H 52.519 36.224 4.103 H 0.0 **** 0.0
21915 H 52.569 36.192 5.882 H 0.0 **** 0.0
21916 C 42.678 22.281 6.567 C 0.0 **** 0.0
21917 H 43.083 21.441 6.003 H 0.0 **** 0.0
21918 H 42.929 23.213 6.06 H 0.0 **** 0.0
21919 H 43.107 22.285 7.569 H 0.0 **** 0.0
21920 H 41.595 22.185 6.636 H 0.0 **** 0.0
21921 C 22.22 86.77 94.088 C 0.0 **** 0.0
21922 H 22.42 86.716 95.158 H 0.0 **** 0.0
21923 H 21.817 87.753 93.844 H 0.0 **** 0.0
21924 H 21.497 86.002 93.814 H 0.0 **** 0.0
21925 H 23.147 86.61 93.537 H 0.0 **** 0.0
21926 C 9.67 65.221 22.187 C 0.0 **** 0.0
21927 H 9.533 66.235 22.564 H 0.0 **** 0.0
21928 H 10.461 65.216 21.437 H 0.0 **** 0.0
21929 H 8.74 64.873 21.738 H 0.0 **** 0.0
21930 H 9.945 64.562 23.011 H 0.0 **** 0.0
21931 C 92.457 71.785 91.604 C 0.0 **** 0.0
21932 H 92.781 71.679 92.64 H 0.0 **** 0.0
21933 H 91.379 71.946 91.576 H 0.0 **** 0.0
21934 H 92.704 70.878 91.052 H 0.0 **** 0.0
21935 H 92.964 72.636 91.15 H 0.0 **** 0.0
21936 C 11.569 19.263 89.254 C 0.0 **** 0.0
21937 H 10.546 19.136 89.608 H 0.0 **** 0.0
21938 H 12.018 20.127 89.745 H 0.0 **** 0.0
21939 H 11.564 19.42 88.176 H 0.0 **** 0.0
21940 H 12.148 18.37 89.489 H 0.0 **** 0.0
21941 C 60.792 11.199 34.909 C 0.0 **** 0.0
21942 H 61.718 11.726 34.678 H 0.0 **** 0.0
21943 H 61.022 10.18 35.222 H 0.0 **** 0.0
21944 H 60.159 11.173 34.022 H 0.0 **** 0.0
21945 H 60.269 11.717 35.713 H 0.0 **** 0.0
21946 C 3.976 30.796 25.749 C 0.0 **** 0.0
21947 H 4.355 30.918 24.735 H 0.0 **** 0.0
21948 H 4.79 30.492 26.408 H 0.0 **** 0.0
21949 H 3.198 30.033 25.757 H 0.0 **** 0.0
21950 H 3.561 31.742 26.098 H 0.0 **** 0.0
21951 C 45.76 65.388 82.36 C 0.0 **** 0.0
21952 H 46.007 65.813 83.333 H 0.0 **** 0.0
21953 H 45.829 64.302 82.41 H 0.0 **** 0.0
21954 H 46.458 65.764 81.612 H 0.0 **** 0.0
21955 H 44.745 65.676 82.085 H 0.0 **** 0.0
21956 C 73.416 77.843 62.12 C 0.0 **** 0.0
21957 H 73.002 77.801 61.112 H 0.0 **** 0.0
21958 H 72.889 77.133 62.758 H 0.0 **** 0.0
21959 H 73.296 78.85 62.52 H 0.0 **** 0.0
21960 H 74.475 77.588 62.088 H 0.0 **** 0.0
21961 C 66.673 42.096 56.389 C 0.0 **** 0.0
21962 H 66.66 42.122 57.479 H 0.0 **** 0.0
21963 H 67.004 41.113 56.054 H 0.0 **** 0.0
21964 H 67.357 42.858 56.016 H 0.0 **** 0.0
21965 H 65.67 42.29 56.009 H 0.0 **** 0.0
21966 C 12.395 36.266 56.797 C 0.0 **** 0.0
21967 H 12.052 36.644 57.76 H 0.0 **** 0.0
21968 H 13.201 35.549 56.956 H 0.0 **** 0.0
21969 H 12.76 37.095 56.19 H 0.0 **** 0.0
21970 H 11.568 35.776 56.284 H 0.0 **** 0.0
21971 C 10.488 34.428 41.408 C 0.0 **** 0.0
21972 H 10.653 35.324 40.81 H 0.0 **** 0.0
21973 H 11.166 34.431 42.262 H 0.0 **** 0.0
21974 H 10.676 33.545 40.797 H 0.0 **** 0.0
21975 H 9.457 34.412 41.761 H 0.0 **** 0.0
21976 C 38.502 9.275 56.873 C 0.0 **** 0.0
21977 H 38.085 9.33 55.868 H 0.0 **** 0.0
21978 H 37.897 8.601 57.48 H 0.0 **** 0.0
21979 H 38.502 10.268 57.321 H 0.0 **** 0.0
21980 H 39.524 8.9 56.822 H 0.0 **** 0.0
21981 C 61.042 3.449 61.451 C 0.0 **** 0.0
21982 H 60.521 2.971 60.621 H 0.0 **** 0.0
21983 H 61.138 2.742 62.275 H 0.0 **** 0.0
21984 H 60.474 4.319 61.782 H 0.0 **** 0.0
21985 H 62.032 3.765 61.125 H 0.0 **** 0.0
21986 C 55.501 85.192 75.986 C 0.0 **** 0.0
21987 H 56.075 85.139 75.061 H 0.0 **** 0.0
21988 H 55.09 84.209 76.215 H 0.0 **** 0.0
21989 H 54.688 85.908 75.867 H 0.0 **** 0.0
21990 H 56.152 85.513 76.799 H 0.0 **** 0.0
21991 C 81.011 55.459 85.435 C 0.0 **** 0.0
21992 H 81.378 55.401 84.411 H 0.0 **** 0.0
21993 H 81.242 54.529 85.956 H 0.0 **** 0.0
21994 H 79.932 55.612 85.426 H 0.0 **** 0.0
21995 H 81.492 56.292 85.947 H 0.0 **** 0.0
21996 C 38.173 31.609 33.375 C 0.0 **** 0.0
21997 H 37.879 30.599 33.664 H 0.0 **** 0.0
21998 H 38.891 31.998 34.097 H 0.0 **** 0.0
21999 H 37.293 32.251 33.354 H 0.0 **** 0.0
22000 H 38.629 31.585 32.385 H 0.0 **** 0.0
22001 C 31.701 71.272 33.532 C 0.0 **** 0.0
22002 H 31.554 71.2 32.454 H 0.0 **** 0.0
22003 H 32.765 71.361 33.748 H 0.0 **** 0.0
22004 H 31.306 70.376 34.012 H 0.0 **** 0.0
22005 H 31.177 72.149 33.912 H 0.0 **** 0.0
22006 C 33.065 11.553 29.156 C 0.0 **** 0.0
22007 H 33.795 10.749 29.066 H 0.0 **** 0.0
22008 H 33.541 12.504 28.916 H 0.0 **** 0.0
22009 H 32.683 11.584 30.176 H 0.0 **** 0.0
22010 H 32.241 11.374 28.465 H 0.0 **** 0.0
22011 C 90.01 73.091 21.383 C 0.0 **** 0.0
22012 H 89.472 74.028 21.53 H 0.0 **** 0.0
22013 H 89.922 72.477 22.28 H 0.0 **** 0.0
22014 H 91.062 73.303 21.189 H 0.0 **** 0.0
22015 H 89.585 72.557 20.533 H 0.0 **** 0.0
22016 C 72.252 32.662 22.636 C 0.0 **** 0.0
22017 H 72.206 32.542 21.554 H 0.0 **** 0.0
22018 H 73.241 32.372 22.992 H 0.0 **** 0.0
22019 H 71.498 32.03 23.105 H 0.0 **** 0.0
22020 H 72.064 33.704 22.894 H 0.0 **** 0.0
22021 C 68.492 48.81 85.709 C 0.0 **** 0.0
22022 H 68.553 48.191 84.814 H 0.0 **** 0.0
22023 H 67.662 49.51 85.611 H 0.0 **** 0.0
22024 H 69.423 49.364 85.831 H 0.0 **** 0.0
22025 H 68.331 48.174 86.58 H 0.0 **** 0.0
22026 C 65.166 12.967 73.126 C 0.0 **** 0.0
22027 H 64.145 13.109 72.771 H 0.0 **** 0.0
22028 H 65.15 12.423 74.07 H 0.0 **** 0.0
22029 H 65.637 13.939 73.274 H 0.0 **** 0.0
22030 H 65.731 12.398 72.388 H 0.0 **** 0.0
22031 C 61.471 96.957 46.9 C 0.0 **** 0.0
22032 H 60.606 97.007 47.561 H 0.0 **** 0.0
22033 H 61.139 96.743 45.884 H 0.0 **** 0.0
22034 H 62.142 96.167 47.238 H 0.0 **** 0.0
22035 H 61.997 97.912 46.917 H 0.0 **** 0.0
22036 C 31.598 65.117 74.825 C 0.0 **** 0.0
22037 H 31.857 64.756 73.83 H 0.0 **** 0.0
22038 H 30.627 64.716 75.115 H 0.0 **** 0.0
22039 H 31.554 66.206 74.816 H 0.0 **** 0.0
22040 H 32.354 64.789 75.538 H 0.0 **** 0.0
22041 C 79.947 86.62 54.322 C 0.0 **** 0.0
22042 H 80.399 87.016 53.413 H 0.0 **** 0.0
22043 H 78.877 86.829 54.316 H 0.0 **** 0.0
22044 H 80.405 87.093 55.191 H 0.0 **** 0.0
22045 H 80.107 85.543 54.367 H 0.0 **** 0.0
22046 C 50.278 40.973 25.702 C 0.0 **** 0.0
22047 H 50.487 41.591 24.829 H 0.0 **** 0.0
22048 H 50.645 41.475 26.598 H 0.0 **** 0.0
22049 H 50.778 40.01 25.594 H 0.0 **** 0.0
22050 H 49.203 40.817 25.788 H 0.0 **** 0.0
22051 C 35.48 45.08 36.415 C 0.0 **** 0.0
22052 H 35.262 46.146 36.355 H 0.0 **** 0.0
22053 H 35.046 44.571 35.554 H 0.0 **** 0.0
22054 H 35.053 44.673 37.332 H 0.0 **** 0.0
22055 H 36.56 44.93 36.42 H 0.0 **** 0.0
22056 C 94.152 23.485 66.891 C 0.0 **** 0.0
22057 H 94.026 23.099 65.879 H 0.0 **** 0.0
22058 H 93.185 23.804 67.281 H 0.0 **** 0.0
22059 H 94.835 24.334 66.873 H 0.0 **** 0.0
22060 H 94.561 22.703 67.53 H 0.0 **** 0.0
22061 C 14.114 14.212 32.556 C 0.0 **** 0.0
22062 H 13.89 14.181 33.622 H 0.0 **** 0.0
22063 H 15.144 14.537 32.41 H 0.0 **** 0.0
22064 H 13.439 14.913 32.064 H 0.0 **** 0.0
22065 H 13.982 13.219 32.128 H 0.0 **** 0.0
22066 C 9.466 50.63 11.236 C 0.0 **** 0.0
22067 H 8.77 50.273 11.995 H 0.0 **** 0.0
22068 H 9.03 51.483 10.716 H 0.0 **** 0.0
22069 H 9.666 49.832 10.522 H 0.0 **** 0.0
22070 H 10.399 50.932 11.713 H 0.0 **** 0.0
22071 C 82.701 6.181 59.643 C 0.0 **** 0.0
22072 H 83.089 5.782 60.58 H 0.0 **** 0.0
22073 H 83.19 7.129 59.421 H 0.0 **** 0.0
22074 H 81.626 6.338 59.733 H 0.0 **** 0.0
22075 H 82.898 5.473 58.838 H 0.0 **** 0.0
22076 C 63.849 98.213 17.039 C 0.0 **** 0.0
22077 H 63.123 97.821 17.752 H 0.0 **** 0.0
22078 H 64.489 97.402 16.691 H 0.0 **** 0.0
22079 H 64.458 98.976 17.524 H 0.0 **** 0.0
22080 H 63.324 98.652 16.191 H 0.0 **** 0.0
22081 C 0.889 87.206 8.583 C 0.0 **** 0.0
22082 H 0.369 86.598 7.843 H 0.0 **** 0.0
22083 H 0.429 87.059 9.561 H 0.0 **** 0.0
22084 H 0.819 88.257 8.303 H 0.0 **** 0.0
22085 H 1.937 86.91 8.625 H 0.0 **** 0.0
22086 C 68.609 25.258 50.049 C 0.0 **** 0.0
22087 H 68.746 25.595 51.076 H 0.0 **** 0.0
22088 H 67.675 24.7 49.971 H 0.0 **** 0.0
22089 H 69.442 24.616 49.763 H 0.0 **** 0.0
22090 H 68.572 26.122 49.385 H 0.0 **** 0.0
22091 C 17.022 83.973 5.779 C 0.0 **** 0.0
22092 H 16.87 82.912 5.581 H 0.0 **** 0.0
22093 H 16.774 84.187 6.819 H 0.0 **** 0.0
22094 H 16.38 84.561 5.123 H 0.0 **** 0.0
22095 H 18.065 84.231 5.593 H 0.0 **** 0.0
22096 C 90.311 25.401 39.472 C 0.0 **** 0.0
22097 H 89.705 25.375 38.567 H 0.0 **** 0.0
22098 H 91.19 24.77 39.34 H 0.0 **** 0.0
22099 H 89.723 25.033 40.313 H 0.0 **** 0.0
22100 H 90.625 26.426 39.669 H 0.0 **** 0.0
22101 C 29.397 23.17 78.665 C 0.0 **** 0.0
22102 H 30.292 22.628 78.359 H 0.0 **** 0.0
22103 H 29.431 24.183 78.263 H 0.0 **** 0.0
22104 H 29.352 23.212 79.753 H 0.0 **** 0.0
22105 H 28.514 22.657 78.284 H 0.0 **** 0.0
22106 C 25.349 48.008 57.799 C 0.0 **** 0.0
22107 H 25.898 47.158 57.394 H 0.0 **** 0.0
22108 H 25.751 48.932 57.382 H 0.0 **** 0.0
22109 H 25.452 48.023 58.884 H 0.0 **** 0.0
22110 H 24.295 47.918 57.535 H 0.0 **** 0.0
22111 C 19.102 38.897 19.44 C 0.0 **** 0.0
22112 H 19.889 38.143 19.421 H 0.0 **** 0.0
22113 H 18.874 39.156 20.474 H 0.0 **** 0.0
22114 H 18.208 38.501 18.958 H 0.0 **** 0.0
22115 H 19.438 39.786 18.908 H 0.0 **** 0.0
22116 C 2.929 11.257 40.425 C 0.0 **** 0.0
22117 H 3.416 10.297 40.594 H 0.0 **** 0.0
22118 H 1.859 11.159 40.613 H 0.0 **** 0.0
22119 H 3.091 11.57 39.394 H 0.0 **** 0.0
22120 H 3.35 12.002 41.101 H 0.0 **** 0.0
22121 C 60.439 76.064 23.172 C 0.0 **** 0.0
22122 H 59.554 75.969 22.542 H 0.0 **** 0.0
22123 H 60.909 77.031 22.993 H 0.0 **** 0.0
22124 H 61.143 75.268 22.931 H 0.0 **** 0.0
22125 H 60.149 75.989 24.22 H 0.0 **** 0.0
22126 C 46.894 88.912 75.646 C 0.0 **** 0.0
22127 H 46.131 88.264 75.215 H 0.0 **** 0.0
22128 H 47.88 88.485 75.459 H 0.0 **** 0.0
22129 H 46.733 88.998 76.72 H 0.0 **** 0.0
22130 H 46.833 89.899 75.189 H 0.0 **** 0.0
22131 C 80.932 43.59 74.227 C 0.0 **** 0.0
22132 H 81.789 43.068 73.802 H 0.0 **** 0.0
22133 H 80.681 44.446 73.6 H 0.0 **** 0.0
22134 H 81.18 43.936 75.231 H 0.0 **** 0.0
22135 H 80.081 42.912 74.276 H 0.0 **** 0.0
22136 C 61.543 47.606 68.371 C 0.0 **** 0.0
22137 H 62.202 47.443 67.518 H 0.0 **** 0.0
22138 H 62.132 47.942 69.225 H 0.0 **** 0.0
22139 H 61.036 46.675 68.622 H 0.0 **** 0.0
22140 H 60.804 48.366 68.118 H 0.0 **** 0.0
22141 C 52.123 28.201 35.919 C 0.0 **** 0.0
22142 H 53.124 27.839 36.154 H 0.0 **** 0.0
22143 H 51.385 27.476 36.262 H 0.0 **** 0.0
22144 H 52.028 28.335 34.841 H 0.0 **** 0.0
22145 H 51.955 29.155 36.419 H 0.0 **** 0.0
22146 C 87.572 70.135 73.884 C 0.0 **** 0.0
22147 H 86.631 69.848 74.354 H 0.0 **** 0.0
22148 H 88.357 70.176 74.639 H 0.0 **** 0.0
22149 H 87.462 71.114 73.419 H 0.0 **** 0.0
22150 H 87.836 69.4 73.123 H 0.0 **** 0.0
22151 C 85.241 44.1 89.66 C 0.0 **** 0.0
22152 H 85.352 44.896 88.924 H 0.0 **** 0.0
22153 H 86.114 43.448 89.623 H 0.0 **** 0.0
22154 H 84.345 43.521 89.435 H 0.0 **** 0.0
22155 H 85.153 44.534 90.655 H 0.0 **** 0.0
22156 C 17.3 77.612 74.229 C 0.0 **** 0.0
22157 H 17.283 76.525 74.32 H 0.0 **** 0.0
22158 H 16.536 78.042 74.877 H 0.0 **** 0.0
22159 H 17.099 77.892 73.195 H 0.0 **** 0.0
22160 H 18.28 77.985 74.523 H 0.0 **** 0.0
22161 C 19.574 81.225 89.687 C 0.0 **** 0.0
22162 H 19.25 80.771 90.624 H 0.0 **** 0.0
22163 H 19.247 82.264 89.655 H 0.0 **** 0.0
22164 H 19.137 80.68 88.85 H 0.0 **** 0.0
22165 H 20.661 81.183 89.62 H 0.0 **** 0.0
22166 C 58.52 17.628 4.598 C 0.0 **** 0.0
22167 H 59.458 18.171 4.483 H 0.0 **** 0.0
22168 H 57.966 18.036 5.443 H 0.0 **** 0.0
22169 H 58.731 16.573 4.776 H 0.0 **** 0.0
22170 H 57.927 17.732 3.689 H 0.0 **** 0.0
22171 C 95.145 40.604 85.165 C 0.0 **** 0.0
22172 H 95.099 40.431 86.24 H 0.0 **** 0.0
22173 H 95.629 41.562 84.972 H 0.0 **** 0.0
22174 H 94.135 40.617 84.756 H 0.0 **** 0.0
22175 H 95.719 39.806 84.693 H 0.0 **** 0.0
22176 C 39.348 24.007 2.785 C 0.0 **** 0.0
22177 H 39.232 23.17 3.473 H 0.0 **** 0.0
22178 H 39.81 23.656 1.862 H 0.0 **** 0.0
22179 H 39.979 24.768 3.242 H 0.0 **** 0.0
22180 H 38.369 24.432 2.563 H 0.0 **** 0.0
22181 C 81.332 26.838 83.081 C 0.0 **** 0.0
22182 H 80.768 26.202 82.398 H 0.0 **** 0.0
22183 H 81.206 27.882 82.792 H 0.0 **** 0.0
22184 H 82.388 26.573 83.035 H 0.0 **** 0.0
22185 H 80.965 26.695 84.097 H 0.0 **** 0.0
22186 C 3.847 63.726 1.347 C 0.0 **** 0.0
22187 H 4.635 63.816 2.095 H 0.0 **** 0.0
22188 H 3.035 63.118 1.746 H 0.0 **** 0.0
22189 H 4.249 63.253 0.451 H 0.0 **** 0.0
22190 H 3.47 64.718 1.096 H 0.0 **** 0.0
22191 C 5.154 67.335 87.075 C 0.0 **** 0.0
22192 H 6.175 67.228 87.442 H 0.0 **** 0.0
22193 H 4.661 66.362 87.087 H 0.0 **** 0.0
22194 H 5.172 67.722 86.057 H 0.0 **** 0.0
22195 H 4.608 68.027 87.717 H 0.0 **** 0.0
22196 C 26.651 37.858 60.366 C 0.0 **** 0.0
22197 H 26.511 37.692 61.434 H 0.0 **** 0.0
22198 H 27.35 37.12 59.973 H 0.0 **** 0.0
22199 H 27.049 38.859 60.204 H 0.0 **** 0.0
22200 H 25.693 37.76 59.855 H 0.0 **** 0.0
22201 C 11.088 17.695 71.137 C 0.0 **** 0.0
22202 H 11.775 16.879 70.915 H 0.0 **** 0.0
22203 H 11.093 18.408 70.313 H 0.0 **** 0.0
22204 H 11.404 18.196 72.053 H 0.0 **** 0.0
22205 H 10.082 17.297 71.269 H 0.0 **** 0.0
22206 C 98.333 80.295 55.951 C 0.0 **** 0.0
22207 H 99.0 80.185 56.807 H 0.0 **** 0.0
22208 H 98.44 81.297 55.534 H 0.0 **** 0.0
22209 H 97.303 80.143 56.272 H 0.0 **** 0.0
22210 H 98.591 79.556 55.193 H 0.0 **** 0.0
22211 C 8.512 61.435 21.878 C 0.0 **** 0.0
22212 H 9.569 61.628 22.062 H 0.0 **** 0.0
22213 H 8.31 61.51 20.809 H 0.0 **** 0.0
22214 H 7.91 62.168 22.415 H 0.0 **** 0.0
22215 H 8.26 60.433 22.226 H 0.0 **** 0.0
22216 C 49.433 37.624 49.82 C 0.0 **** 0.0
22217 H 48.602 37.709 49.121 H 0.0 **** 0.0
22218 H 50.23 38.305 49.521 H 0.0 **** 0.0
22219 H 49.809 36.601 49.816 H 0.0 **** 0.0
22220 H 49.092 37.882 50.823 H 0.0 **** 0.0
22221 C 14.079 20.219 25.3 C 0.0 **** 0.0
22222 H 13.941 20.258 26.38 H 0.0 **** 0.0
22223 H 14.269 21.224 24.921 H 0.0 **** 0.0
22224 H 13.18 19.818 24.832 H 0.0 **** 0.0
22225 H 14.928 19.576 25.065 H 0.0 **** 0.0
22226 C 71.858 1.122 97.794 C 0.0 **** 0.0
22227 H 71.427 2.095 98.028 H 0.0 **** 0.0
22228 H 72.71 1.254 97.126 H 0.0 **** 0.0
22229 H 71.108 0.499 97.307 H 0.0 **** 0.0
22230 H 72.189 0.64 98.714 H 0.0 **** 0.0
22231 C 38.91 45.2 50.625 C 0.0 **** 0.0
22232 H 38.158 44.623 50.086 H 0.0 **** 0.0
22233 H 39.87 44.686 50.571 H 0.0 **** 0.0
22234 H 38.61 45.302 51.668 H 0.0 **** 0.0
22235 H 39.0 46.189 50.175 H 0.0 **** 0.0
22236 C 39.476 91.364 19.657 C 0.0 **** 0.0
22237 H 39.847 90.621 18.951 H 0.0 **** 0.0
22238 H 38.795 92.044 19.143 H 0.0 **** 0.0
22239 H 40.314 91.928 20.065 H 0.0 **** 0.0
22240 H 38.946 90.862 20.466 H 0.0 **** 0.0
22241 C 7.017 85.913 31.005 C 0.0 **** 0.0
22242 H 7.181 86.086 29.941 H 0.0 **** 0.0
22243 H 6.792 84.859 31.17 H 0.0 **** 0.0
22244 H 6.18 86.522 31.347 H 0.0 **** 0.0
22245 H 7.915 86.185 31.559 H 0.0 **** 0.0
22246 C 81.695 26.307 26.687 C 0.0 **** 0.0
22247 H 81.476 26.291 27.755 H 0.0 **** 0.0
22248 H 81.026 25.617 26.17 H 0.0 **** 0.0
22249 H 82.728 26.002 26.524 H 0.0 **** 0.0
22250 H 81.547 27.315 26.301 H 0.0 **** 0.0
22251 C 45.146 21.028 94.92 C 0.0 **** 0.0
22252 H 44.513 21.397 94.113 H 0.0 **** 0.0
22253 H 45.6 21.871 95.441 H 0.0 **** 0.0
22254 H 45.928 20.392 94.506 H 0.0 **** 0.0
22255 H 44.541 20.451 95.62 H 0.0 **** 0.0
22256 C 19.992 43.718 60.042 C 0.0 **** 0.0
22257 H 19.095 44.337 60.031 H 0.0 **** 0.0
22258 H 20.875 44.358 60.065 H 0.0 **** 0.0
22259 H 20.016 43.097 59.146 H 0.0 **** 0.0
22260 H 19.982 43.08 60.926 H 0.0 **** 0.0
22261 C 82.657 58.284 52.7 C 0.0 **** 0.0
22262 H 82.884 58.931 53.548 H 0.0 **** 0.0
22263 H 81.656 57.867 52.82 H 0.0 **** 0.0
22264 H 83.385 57.475 52.655 H 0.0 **** 0.0
22265 H 82.701 58.865 51.779 H 0.0 **** 0.0
22266 C 7.645 26.426 30.331 C 0.0 **** 0.0
22267 H 7.796 26.19 29.278 H 0.0 **** 0.0
22268 H 8.613 26.518 30.825 H 0.0 **** 0.0
22269 H 7.071 25.628 30.803 H 0.0 **** 0.0
22270 H 7.101 27.366 30.419 H 0.0 **** 0.0
22271 C 12.98 85.036 78.636 C 0.0 **** 0.0
22272 H 12.763 84.955 79.701 H 0.0 **** 0.0
22273 H 13.588 85.923 78.456 H 0.0 **** 0.0
22274 H 12.047 85.116 78.08 H 0.0 **** 0.0
22275 H 13.524 84.15 78.308 H 0.0 **** 0.0
22276 C 31.24 2.698 57.086 C 0.0 **** 0.0
22277 H 31.296 2.924 58.15 H 0.0 **** 0.0
22278 H 32.239 2.75 56.651 H 0.0 **** 0.0
22279 H 30.592 3.423 56.594 H 0.0 **** 0.0
22280 H 30.835 1.696 56.948 H 0.0 **** 0.0
22281 C 30.694 61.501 23.889 C 0.0 **** 0.0
22282 H 31.632 61.084 24.256 H 0.0 **** 0.0
22283 H 29.858 60.995 24.374 H 0.0 **** 0.0
22284 H 30.63 61.356 22.811 H 0.0 **** 0.0
22285 H 30.656 62.566 24.116 H 0.0 **** 0.0
22286 C 56.955 55.533 11.047 C 0.0 **** 0.0
22287 H 56.281 56.042 11.735 H 0.0 **** 0.0
22288 H 57.982 55.642 11.397 H 0.0 **** 0.0
22289 H 56.861 55.974 10.054 H 0.0 **** 0.0
22290 H 56.697 54.475 11.001 H 0.0 **** 0.0
22291 C 35.131 84.656 46.427 C 0.0 **** 0.0
22292 H 34.693 85.089 45.528 H 0.0 **** 0.0
22293 H 36.217 84.656 46.338 H 0.0 **** 0.0
22294 H 34.776 83.632 46.546 H 0.0 **** 0.0
22295 H 34.837 85.246 47.295 H 0.0 **** 0.0
22296 C 74.545 87.441 16.982 C 0.0 **** 0.0
22297 H 74.527 87.367 18.069 H 0.0 **** 0.0
22298 H 73.827 88.195 16.658 H 0.0 **** 0.0
22299 H 74.282 86.477 16.547 H 0.0 **** 0.0
22300 H 75.545 87.727 16.654 H 0.0 **** 0.0
22301 C 61.748 10.631 50.264 C 0.0 **** 0.0
22302 H 61.554 9.643 49.846 H 0.0 **** 0.0
22303 H 61.722 11.374 49.466 H 0.0 **** 0.0
22304 H 62.73 10.639 50.737 H 0.0 **** 0.0
22305 H 60.985 10.868 51.006 H 0.0 **** 0.0
22306 C 68.512 11.691 35.158 C 0.0 **** 0.0
22307 H 68.259 11.307 34.17 H 0.0 **** 0.0
22308 H 69.501 12.149 35.127 H 0.0 **** 0.0
22309 H 68.512 10.873 35.878 H 0.0 **** 0.0
22310 H 67.775 12.437 35.457 H 0.0 **** 0.0
22311 C 62.018 9.515 59.473 C 0.0 **** 0.0
22312 H 62.846 8.856 59.735 H 0.0 **** 0.0
22313 H 62.247 10.032 58.541 H 0.0 **** 0.0
22314 H 61.87 10.246 60.268 H 0.0 **** 0.0
22315 H 61.11 8.925 59.348 H 0.0 **** 0.0
22316 C 3.761 63.178 93.589 C 0.0 **** 0.0
22317 H 3.366 63.964 94.233 H 0.0 **** 0.0
22318 H 3.051 62.351 93.548 H 0.0 **** 0.0
22319 H 4.71 62.822 93.99 H 0.0 **** 0.0
22320 H 3.916 63.574 92.586 H 0.0 **** 0.0
22321 C 61.232 36.471 80.857 C 0.0 **** 0.0
22322 H 60.886 37.221 80.146 H 0.0 **** 0.0
22323 H 60.826 35.497 80.582 H 0.0 **** 0.0
22324 H 60.894 36.737 81.858 H 0.0 **** 0.0
22325 H 62.321 36.429 80.84 H 0.0 **** 0.0
22326 C 42.395 25.71 49.987 C 0.0 **** 0.0
22327 H 42.932 25.081 50.697 H 0.0 **** 0.0
22328 H 42.079 25.107 49.135 H 0.0 **** 0.0
22329 H 43.05 26.51 49.643 H 0.0 **** 0.0
22330 H 41.519 26.14 50.473 H 0.0 **** 0.0
22331 C 90.472 19.625 79.814 C 0.0 **** 0.0
22332 H 90.317 19.54 80.89 H 0.0 **** 0.0
22333 H 89.541 19.4 79.294 H 0.0 **** 0.0
22334 H 91.243 18.92 79.502 H 0.0 **** 0.0
22335 H 90.788 20.64 79.572 H 0.0 **** 0.0
22336 C 89.239 59.275 67.909 C 0.0 **** 0.0
22337 H 89.769 58.341 68.094 H 0.0 **** 0.0
22338 H 88.171 59.075 67.819 H 0.0 **** 0.0
22339 H 89.604 59.722 66.984 H 0.0 **** 0.0
22340 H 89.412 59.962 68.738 H 0.0 **** 0.0
22341 C 42.262 60.535 46.752 C 0.0 **** 0.0
22342 H 42.895 60.66 47.631 H 0.0 **** 0.0
22343 H 42.383 59.525 46.36 H 0.0 **** 0.0
22344 H 42.552 61.258 45.99 H 0.0 **** 0.0
22345 H 41.221 60.696 47.029 H 0.0 **** 0.0
22346 C 59.414 14.008 6.14 C 0.0 **** 0.0
22347 H 58.417 14.448 6.104 H 0.0 **** 0.0
22348 H 59.666 13.599 5.162 H 0.0 **** 0.0
22349 H 59.431 13.212 6.884 H 0.0 **** 0.0
22350 H 60.139 14.775 6.412 H 0.0 **** 0.0
22351 C 9.074 48.021 26.923 C 0.0 **** 0.0
22352 H 8.091 48.472 27.053 H 0.0 **** 0.0
22353 H 9.816 48.605 27.469 H 0.0 **** 0.0
22354 H 9.33 48.007 25.864 H 0.0 **** 0.0
22355 H 9.06 47.001 27.307 H 0.0 **** 0.0
22356 C 60.595 39.861 48.795 C 0.0 **** 0.0
22357 H 60.155 40.461 47.998 H 0.0 **** 0.0
22358 H 61.476 40.369 49.188 H 0.0 **** 0.0
22359 H 60.881 38.887 48.4 H 0.0 **** 0.0
22360 H 59.865 39.729 49.594 H 0.0 **** 0.0
22361 C 39.641 70.311 4.889 C 0.0 **** 0.0
22362 H 39.255 70.638 5.854 H 0.0 **** 0.0
22363 H 39.746 69.225 4.888 H 0.0 **** 0.0
22364 H 40.614 70.77 4.713 H 0.0 **** 0.0
22365 H 38.95 70.61 4.101 H 0.0 **** 0.0
22366 C 51.968 65.374 32.141 C 0.0 **** 0.0
22367 H 52.071 64.98 31.13 H 0.0 **** 0.0
22368 H 51.089 64.936 32.614 H 0.0 **** 0.0
22369 H 51.858 66.457 32.1 H 0.0 **** 0.0
22370 H 52.856 65.121 32.72 H 0.0 **** 0.0
22371 C 46.027 13.994 27.385 C 0.0 **** 0.0
22372 H 45.272 14.29 28.113 H 0.0 **** 0.0
22373 H 47.02 14.18 27.796 H 0.0 **** 0.0
22374 H 45.898 14.573 26.471 H 0.0 **** 0.0
22375 H 45.919 12.933 27.161 H 0.0 **** 0.0
22376 C 31.735 34.649 72.203 C 0.0 **** 0.0
22377 H 31.566 34.16 71.244 H 0.0 **** 0.0
22378 H 31.095 35.528 72.281 H 0.0 **** 0.0
22379 H 32.78 34.952 72.276 H 0.0 **** 0.0
22380 H 31.501 33.955 73.011 H 0.0 **** 0.0
22381 C 18.293 11.265 41.245 C 0.0 **** 0.0
22382 H 18.774 10.739 40.42 H 0.0 **** 0.0
22383 H 18.219 10.599 42.105 H 0.0 **** 0.0
22384 H 17.294 11.578 40.941 H 0.0 **** 0.0
22385 H 18.883 12.141 41.512 H 0.0 **** 0.0
22386 C 31.746 49.341 41.413 C 0.0 **** 0.0
22387 H 32.011 50.275 40.916 H 0.0 **** 0.0
22388 H 32.547 48.615 41.273 H 0.0 **** 0.0
22389 H 30.823 48.951 40.984 H 0.0 **** 0.0
22390 H 31.603 49.524 42.478 H 0.0 **** 0.0
22391 C 94.729 33.136 93.296 C 0.0 **** 0.0
22392 H 94.362 33.451 92.32 H 0.0 **** 0.0
22393 H 94.208 33.691 94.076 H 0.0 **** 0.0
22394 H 95.799 33.334 93.363 H 0.0 **** 0.0
22395 H 94.548 32.069 93.426 H 0.0 **** 0.0
22396 C 91.694 25.783 21.882 C 0.0 **** 0.0
22397 H 92.008 25.558 20.863 H 0.0 **** 0.0
22398 H 92.491 25.515 22.575 H 0.0 **** 0.0
22399 H 90.797 25.212 22.12 H 0.0 **** 0.0
22400 H 91.48 26.849 21.968 H 0.0 **** 0.0
22401 C 28.246 61.914 4.848 C 0.0 **** 0.0
22402 H 28.338 62.746 5.545 H 0.0 **** 0.0
22403 H 28.177 62.298 3.83 H 0.0 **** 0.0
22404 H 27.348 61.342 5.082 H 0.0 **** 0.0
22405 H 29.12 61.269 4.935 H 0.0 **** 0.0
22406 C 97.038 36.607 21.702 C 0.0 **** 0.0
22407 H 96.542 35.64 21.614 H 0.0 **** 0.0
22408 H 98.095 36.454 21.919 H 0.0 **** 0.0
22409 H 96.58 37.178 22.509 H 0.0 **** 0.0
22410 H 96.934 37.155 20.765 H 0.0 **** 0.0
22411 C 64.688 57.286 54.13 C 0.0 **** 0.0
22412 H 64.749 57.284 55.218 H 0.0 **** 0.0
22413 H 63.816 56.715 53.814 H 0.0 **** 0.0
22414 H 65.589 56.834 53.715 H 0.0 **** 0.0
22415 H 64.6 58.312 53.773 H 0.0 **** 0.0
22416 C 41.731 58.478 3.254 C 0.0 **** 0.0
22417 H 42.366 58.612 4.129 H 0.0 **** 0.0
22418 H 42.267 58.801 2.362 H 0.0 **** 0.0
22419 H 40.824 59.072 3.369 H 0.0 **** 0.0
22420 H 41.465 57.425 3.157 H 0.0 **** 0.0
22421 C 76.826 12.275 94.547 C 0.0 **** 0.0
22422 H 77.317 11.73 93.74 H 0.0 **** 0.0
22423 H 76.927 13.347 94.376 H 0.0 **** 0.0
22424 H 77.293 12.013 95.497 H 0.0 **** 0.0
22425 H 75.77 12.008 94.575 H 0.0 **** 0.0
22426 C 56.984 4.782 7.436 C 0.0 **** 0.0
22427 H 57.221 4.179 8.313 H 0.0 **** 0.0
22428 H 57.908 5.117 6.965 H 0.0 **** 0.0
22429 H 56.396 5.649 7.739 H 0.0 **** 0.0
22430 H 56.411 4.184 6.728 H 0.0 **** 0.0
22431 C 61.402 83.665 11.241 C 0.0 **** 0.0
22432 H 60.643 82.892 11.12 H 0.0 **** 0.0
22433 H 62.253 83.256 11.787 H 0.0 **** 0.0
22434 H 60.982 84.503 11.798 H 0.0 **** 0.0
22435 H 61.731 84.008 10.26 H 0.0 **** 0.0
22436 C 19.857 25.603 76.586 C 0.0 **** 0.0
22437 H 19.642 24.723 75.981 H 0.0 **** 0.0
22438 H 20.894 25.57 76.92 H 0.0 **** 0.0
22439 H 19.196 25.618 77.453 H 0.0 **** 0.0
22440 H 19.695 26.502 75.991 H 0.0 **** 0.0
22441 C 90.796 39.714 18.988 C 0.0 **** 0.0
22442 H 91.802 39.302 18.91 H 0.0 **** 0.0
22443 H 90.853 40.802 19.04 H 0.0 **** 0.0
22444 H 90.315 39.331 19.888 H 0.0 **** 0.0
22445 H 90.215 39.422 18.113 H 0.0 **** 0.0
22446 C 76.641 43.14 92.701 C 0.0 **** 0.0
22447 H 76.658 43.274 93.783 H 0.0 **** 0.0
22448 H 77.302 43.871 92.235 H 0.0 **** 0.0
22449 H 75.625 43.283 92.334 H 0.0 **** 0.0
22450 H 76.979 42.134 92.455 H 0.0 **** 0.0
22451 C 89.756 28.598 2.412 C 0.0 **** 0.0
22452 H 90.458 29.374 2.72 H 0.0 **** 0.0
22453 H 89.923 28.353 1.364 H 0.0 **** 0.0
22454 H 88.736 28.959 2.543 H 0.0 **** 0.0
22455 H 89.908 27.709 3.023 H 0.0 **** 0.0
22456 C 66.476 14.298 11.02 C 0.0 **** 0.0
22457 H 66.347 13.315 10.567 H 0.0 **** 0.0
22458 H 66.585 14.189 12.099 H 0.0 **** 0.0
22459 H 65.605 14.916 10.802 H 0.0 **** 0.0
22460 H 67.369 14.771 10.61 H 0.0 **** 0.0
22461 C 41.62 44.063 75.555 C 0.0 **** 0.0
22462 H 41.016 43.74 74.706 H 0.0 **** 0.0
22463 H 42.638 43.692 75.438 H 0.0 **** 0.0
22464 H 41.192 43.667 76.476 H 0.0 **** 0.0
22465 H 41.632 45.152 75.599 H 0.0 **** 0.0
22466 C 6.542 81.215 29.678 C 0.0 **** 0.0
22467 H 6.761 80.524 28.864 H 0.0 **** 0.0
22468 H 5.549 81.003 30.076 H 0.0 **** 0.0
22469 H 6.573 82.238 29.305 H 0.0 **** 0.0
22470 H 7.284 81.093 30.468 H 0.0 **** 0.0
22471 C 16.96 77.066 6.412 C 0.0 **** 0.0
22472 H 16.802 77.151 5.337 H 0.0 **** 0.0
22473 H 17.701 76.291 6.61 H 0.0 **** 0.0
22474 H 16.02 76.803 6.897 H 0.0 **** 0.0
22475 H 17.316 78.019 6.803 H 0.0 **** 0.0
22476 C 69.95 48.328 55.741 C 0.0 **** 0.0
22477 H 69.31 47.464 55.92 H 0.0 **** 0.0
22478 H 70.295 48.317 54.707 H 0.0 **** 0.0
22479 H 70.809 48.289 56.411 H 0.0 **** 0.0
22480 H 69.386 49.242 55.927 H 0.0 **** 0.0
22481 C 43.75 77.538 55.965 C 0.0 **** 0.0
22482 H 43.477 77.666 57.013 H 0.0 **** 0.0
22483 H 42.873 77.228 55.397 H 0.0 **** 0.0
22484 H 44.525 76.776 55.883 H 0.0 **** 0.0
22485 H 44.125 78.482 55.57 H 0.0 **** 0.0
22486 C 7.603 57.544 86.412 C 0.0 **** 0.0
22487 H 6.566 57.21 86.454 H 0.0 **** 0.0
22488 H 7.876 57.752 85.377 H 0.0 **** 0.0
22489 H 8.252 56.765 86.811 H 0.0 **** 0.0
22490 H 7.716 58.451 87.007 H 0.0 **** 0.0
22491 C 38.883 42.432 70.466 C 0.0 **** 0.0
22492 H 38.441 42.752 71.409 H 0.0 **** 0.0
22493 H 38.603 41.397 70.266 H 0.0 **** 0.0
22494 H 39.969 42.508 70.53 H 0.0 **** 0.0
22495 H 38.521 43.069 69.66 H 0.0 **** 0.0
22496 C 41.074 93.908 55.206 C 0.0 **** 0.0
22497 H 39.992 93.776 55.228 H 0.0 **** 0.0
22498 H 41.551 92.956 54.971 H 0.0 **** 0.0
22499 H 41.417 94.256 56.18 H 0.0 **** 0.0
22500 H 41.334 94.643 54.444 H 0.0 **** 0.0
22501 C 54.019 14.722 45.734 C 0.0 **** 0.0
22502 H 54.734 14.247 46.406 H 0.0 **** 0.0
22503 H 54.382 15.713 45.46 H 0.0 **** 0.0
22504 H 53.055 14.814 46.235 H 0.0 **** 0.0
22505 H 53.906 14.115 44.836 H 0.0 **** 0.0
22506 C 28.621 81.735 82.662 C 0.0 **** 0.0
22507 H 27.873 82.17 83.324 H 0.0 **** 0.0
22508 H 28.188 81.587 81.672 H 0.0 **** 0.0
22509 H 28.947 80.775 83.063 H 0.0 **** 0.0
22510 H 29.476 82.406 82.588 H 0.0 **** 0.0
22511 C 84.512 30.409 44.448 C 0.0 **** 0.0
22512 H 83.518 30.789 44.209 H 0.0 **** 0.0
22513 H 84.423 29.419 44.897 H 0.0 **** 0.0
22514 H 85.001 31.085 45.149 H 0.0 **** 0.0
22515 H 85.103 30.342 43.535 H 0.0 **** 0.0
22516 C 54.974 7.442 51.924 C 0.0 **** 0.0
22517 H 55.011 6.543 51.308 H 0.0 **** 0.0
22518 H 54.116 7.388 52.594 H 0.0 **** 0.0
22519 H 54.881 8.318 51.283 H 0.0 **** 0.0
22520 H 55.889 7.517 52.511 H 0.0 **** 0.0
22521 C 95.892 92.827 86.614 C 0.0 **** 0.0
22522 H 96.974 92.849 86.484 H 0.0 **** 0.0
22523 H 95.656 92.559 87.645 H 0.0 **** 0.0
22524 H 95.46 92.088 85.939 H 0.0 **** 0.0
22525 H 95.479 93.81 86.39 H 0.0 **** 0.0
22526 C 95.644 41.958 54.69 C 0.0 **** 0.0
22527 H 95.676 41.984 55.779 H 0.0 **** 0.0
22528 H 96.542 42.427 54.288 H 0.0 **** 0.0
22529 H 94.764 42.498 54.34 H 0.0 **** 0.0
22530 H 95.592 40.922 54.353 H 0.0 **** 0.0
22531 C 76.404 89.803 61.888 C 0.0 **** 0.0
22532 H 76.671 90.318 62.811 H 0.0 **** 0.0
22533 H 77.308 89.431 61.405 H 0.0 **** 0.0
22534 H 75.893 90.496 61.22 H 0.0 **** 0.0
22535 H 75.744 88.967 62.117 H 0.0 **** 0.0
22536 C 83.53 47.866 31.711 C 0.0 **** 0.0
22537 H 82.675 48.515 31.899 H 0.0 **** 0.0
22538 H 83.207 46.998 31.136 H 0.0 **** 0.0
22539 H 83.95 47.536 32.661 H 0.0 **** 0.0
22540 H 84.286 48.414 31.15 H 0.0 **** 0.0
22541 C 37.366 18.759 32.521 C 0.0 **** 0.0
22542 H 38.097 19.205 31.846 H 0.0 **** 0.0
22543 H 37.519 19.146 33.528 H 0.0 **** 0.0
22544 H 37.489 17.676 32.524 H 0.0 **** 0.0
22545 H 36.36 19.009 32.184 H 0.0 **** 0.0
22546 C 1.871 32.196 67.174 C 0.0 **** 0.0
22547 H 2.748 32.644 66.707 H 0.0 **** 0.0
22548 H 1.925 32.332 68.254 H 0.0 **** 0.0
22549 H 1.84 31.131 66.942 H 0.0 **** 0.0
22550 H 0.971 32.677 66.791 H 0.0 **** 0.0
22551 C 31.492 13.807 85.859 C 0.0 **** 0.0
22552 H 31.409 13.619 86.929 H 0.0 **** 0.0
22553 H 30.808 13.15 85.321 H 0.0 **** 0.0
22554 H 32.514 13.614 85.534 H 0.0 **** 0.0
22555 H 31.235 14.846 85.652 H 0.0 **** 0.0
22556 C 89.45 28.591 78.574 C 0.0 **** 0.0
22557 H 89.83 29.051 79.486 H 0.0 **** 0.0
22558 H 90.267 28.094 78.05 H 0.0 **** 0.0
22559 H 89.02 29.36 77.932 H 0.0 **** 0.0
22560 H 88.683 27.86 78.829 H 0.0 **** 0.0
22561 C 48.633 4.897 11.455 C 0.0 **** 0.0
22562 H 49.113 4.873 12.433 H 0.0 **** 0.0
22563 H 49.355 4.612 10.689 H 0.0 **** 0.0
22564 H 48.268 5.904 11.254 H 0.0 **** 0.0
22565 H 47.797 4.198 11.444 H 0.0 **** 0.0
22566 C 0.569 81.25 95.103 C 0.0 **** 0.0
22567 H 0.742 81.438 94.043 H 0.0 **** 0.0
22568 H 0.002 82.078 95.531 H 0.0 **** 0.0
22569 H 1.526 81.16 95.617 H 0.0 **** 0.0
22570 H 0.005 80.325 95.22 H 0.0 **** 0.0
22571 C 88.61 37.446 54.147 C 0.0 **** 0.0
22572 H 87.667 37.027 53.796 H 0.0 **** 0.0
22573 H 88.614 38.523 53.98 H 0.0 **** 0.0
22574 H 89.436 36.989 53.601 H 0.0 **** 0.0
22575 H 88.723 37.243 55.212 H 0.0 **** 0.0
22576 C 17.135 96.904 80.1 C 0.0 **** 0.0
22577 H 18.014 96.713 80.715 H 0.0 **** 0.0
22578 H 16.271 96.398 80.532 H 0.0 **** 0.0
22579 H 17.309 96.529 79.091 H 0.0 **** 0.0
22580 H 16.945 97.977 80.061 H 0.0 **** 0.0
22581 C 49.967 52.864 48.543 C 0.0 **** 0.0
22582 H 50.309 52.296 47.678 H 0.0 **** 0.0
22583 H 49.172 52.314 49.047 H 0.0 **** 0.0
22584 H 49.587 53.832 48.214 H 0.0 **** 0.0
22585 H 50.798 53.015 49.232 H 0.0 **** 0.0
22586 C 88.932 4.976 76.164 C 0.0 **** 0.0
22587 H 89.266 5.116 75.136 H 0.0 **** 0.0
22588 H 89.38 5.74 76.799 H 0.0 **** 0.0
22589 H 89.236 3.989 76.513 H 0.0 **** 0.0
22590 H 87.846 5.058 76.207 H 0.0 **** 0.0
22591 C 84.8 15.404 42.565 C 0.0 **** 0.0
22592 H 85.022 15.557 41.51 H 0.0 **** 0.0
22593 H 85.582 15.862 43.172 H 0.0 **** 0.0
22594 H 84.755 14.335 42.776 H 0.0 **** 0.0
22595 H 83.84 15.862 42.804 H 0.0 **** 0.0
22596 C 83.074 2.814 87.258 C 0.0 **** 0.0
22597 H 82.97 3.722 86.664 H 0.0 **** 0.0
22598 H 84.037 2.822 87.769 H 0.0 **** 0.0
22599 H 83.016 1.944 86.605 H 0.0 **** 0.0
22600 H 82.272 2.769 87.995 H 0.0 **** 0.0
22601 C 3.66 84.312 68.876 C 0.0 **** 0.0
22602 H 4.087 84.749 69.778 H 0.0 **** 0.0
22603 H 2.979 85.028 68.414 H 0.0 **** 0.0
22604 H 3.114 83.405 69.134 H 0.0 **** 0.0
22605 H 4.46 84.069 68.177 H 0.0 **** 0.0
22606 C 13.545 49.217 30.002 C 0.0 **** 0.0
22607 H 13.375 48.208 30.378 H 0.0 **** 0.0
22608 H 13.369 49.238 28.926 H 0.0 **** 0.0
22609 H 14.574 49.512 30.207 H 0.0 **** 0.0
22610 H 12.863 49.909 30.496 H 0.0 **** 0.0
22611 C 4.827 82.368 25.621 C 0.0 **** 0.0
22612 H 5.343 83.145 25.057 H 0.0 **** 0.0
22613 H 4.144 81.833 24.961 H 0.0 **** 0.0
22614 H 4.264 82.824 26.435 H 0.0 **** 0.0
22615 H 5.558 81.67 26.031 H 0.0 **** 0.0
22616 C 47.436 32.127 0.766 C 0.0 **** 0.0
22617 H 47.454 32.323 1.838 H 0.0 **** 0.0
22618 H 46.72 31.333 0.553 H 0.0 **** 0.0
22619 H 48.428 31.821 0.436 H 0.0 **** 0.0
22620 H 47.141 33.034 0.236 H 0.0 **** 0.0
22621 C 75.651 41.015 62.688 C 0.0 **** 0.0
22622 H 75.995 41.877 62.117 H 0.0 **** 0.0
22623 H 76.411 40.737 63.419 H 0.0 **** 0.0
22624 H 75.473 40.179 62.012 H 0.0 **** 0.0
22625 H 74.725 41.268 63.204 H 0.0 **** 0.0
22626 C 91.286 61.831 24.793 C 0.0 **** 0.0
22627 H 90.456 61.994 25.481 H 0.0 **** 0.0
22628 H 91.076 60.961 24.171 H 0.0 **** 0.0
22629 H 92.2 61.66 25.362 H 0.0 **** 0.0
22630 H 91.411 62.71 24.16 H 0.0 **** 0.0
22631 C 32.085 93.717 6.347 C 0.0 **** 0.0
22632 H 32.103 93.701 7.437 H 0.0 **** 0.0
22633 H 31.587 92.82 5.979 H 0.0 **** 0.0
22634 H 33.106 93.748 5.967 H 0.0 **** 0.0
22635 H 31.543 94.599 6.006 H 0.0 **** 0.0
22636 C 36.044 51.061 41.903 C 0.0 **** 0.0
22637 H 36.382 50.959 40.872 H 0.0 **** 0.0
22638 H 35.457 50.185 42.181 H 0.0 **** 0.0
22639 H 35.428 51.955 41.997 H 0.0 **** 0.0
22640 H 36.908 51.144 42.562 H 0.0 **** 0.0
22641 C 64.201 42.221 65.188 C 0.0 **** 0.0
22642 H 63.777 42.964 64.512 H 0.0 **** 0.0
22643 H 65.182 42.555 65.524 H 0.0 **** 0.0
22644 H 64.299 41.269 64.665 H 0.0 **** 0.0
22645 H 63.544 42.097 66.049 H 0.0 **** 0.0
22646 C 25.681 35.634 54.195 C 0.0 **** 0.0
22647 H 25.8 36.384 54.977 H 0.0 **** 0.0
22648 H 26.591 35.587 53.596 H 0.0 **** 0.0
22649 H 24.84 35.905 53.558 H 0.0 **** 0.0
22650 H 25.493 34.661 54.65 H 0.0 **** 0.0
22651 C 9.457 21.067 93.672 C 0.0 **** 0.0
22652 H 8.496 21.086 94.186 H 0.0 **** 0.0
22653 H 9.631 20.07 93.265 H 0.0 **** 0.0
22654 H 10.25 21.315 94.378 H 0.0 **** 0.0
22655 H 9.451 21.795 92.862 H 0.0 **** 0.0
22656 C 97.826 17.211 25.249 C 0.0 **** 0.0
22657 H 97.974 17.172 24.17 H 0.0 **** 0.0
22658 H 97.264 16.334 25.57 H 0.0 **** 0.0
22659 H 97.27 18.113 25.507 H 0.0 **** 0.0
22660 H 98.794 17.226 25.748 H 0.0 **** 0.0
22661 C 86.069 50.813 1.067 C 0.0 **** 0.0
22662 H 86.253 50.99 0.008 H 0.0 **** 0.0
22663 H 85.665 49.809 1.203 H 0.0 **** 0.0
22664 H 85.353 51.546 1.439 H 0.0 **** 0.0
22665 H 87.004 50.905 1.619 H 0.0 **** 0.0
22666 C 82.129 20.738 16.014 C 0.0 **** 0.0
22667 H 82.111 20.732 14.924 H 0.0 **** 0.0
22668 H 81.427 21.486 16.384 H 0.0 **** 0.0
22669 H 83.134 20.978 16.36 H 0.0 **** 0.0
22670 H 81.842 19.754 16.386 H 0.0 **** 0.0
22671 C 47.09 68.602 22.795 C 0.0 **** 0.0
22672 H 46.189 68.695 23.401 H 0.0 **** 0.0
22673 H 47.946 68.41 23.443 H 0.0 **** 0.0
22674 H 47.253 69.528 22.242 H 0.0 **** 0.0
22675 H 46.973 67.776 22.094 H 0.0 **** 0.0
22676 C 45.038 28.606 89.014 C 0.0 **** 0.0
22677 H 46.069 28.424 89.319 H 0.0 **** 0.0
22678 H 44.895 29.672 88.835 H 0.0 **** 0.0
22679 H 44.363 28.277 89.804 H 0.0 **** 0.0
22680 H 44.826 28.052 88.1 H 0.0 **** 0.0
22681 C 74.271 55.207 76.103 C 0.0 **** 0.0
22682 H 74.193 54.889 75.064 H 0.0 **** 0.0
22683 H 73.287 55.501 76.468 H 0.0 **** 0.0
22684 H 74.954 56.054 76.174 H 0.0 **** 0.0
22685 H 74.652 54.383 76.707 H 0.0 **** 0.0
22686 C 74.562 35.483 40.909 C 0.0 **** 0.0
22687 H 74.17 35.591 41.92 H 0.0 **** 0.0
22688 H 73.736 35.338 40.213 H 0.0 **** 0.0
22689 H 75.227 34.621 40.868 H 0.0 **** 0.0
22690 H 75.115 36.382 40.636 H 0.0 **** 0.0
22691 C 91.436 64.082 41.671 C 0.0 **** 0.0
22692 H 91.089 64.561 42.587 H 0.0 **** 0.0
22693 H 90.76 63.268 41.409 H 0.0 **** 0.0
22694 H 92.439 63.686 41.826 H 0.0 **** 0.0
22695 H 91.454 64.814 40.864 H 0.0 **** 0.0
22696 C 54.04 40.376 90.982 C 0.0 **** 0.0
22697 H 54.042 40.939 91.916 H 0.0 **** 0.0
22698 H 53.901 39.316 91.197 H 0.0 **** 0.0
22699 H 54.991 40.521 90.469 H 0.0 **** 0.0
22700 H 53.227 40.728 90.347 H 0.0 **** 0.0
22701 C 37.899 66.66 23.596 C 0.0 **** 0.0
22702 H 38.116 67.071 24.582 H 0.0 **** 0.0
22703 H 36.833 66.757 23.389 H 0.0 **** 0.0
22704 H 38.18 65.607 23.572 H 0.0 **** 0.0
22705 H 38.467 67.206 22.843 H 0.0 **** 0.0
22706 C 90.207 57.349 96.716 C 0.0 **** 0.0
22707 H 89.669 57.69 97.6 H 0.0 **** 0.0
22708 H 91.169 56.933 97.015 H 0.0 **** 0.0
22709 H 90.367 58.19 96.041 H 0.0 **** 0.0
22710 H 89.621 56.582 96.208 H 0.0 **** 0.0
22711 C 19.824 4.045 22.584 C 0.0 **** 0.0
22712 H 19.117 3.662 21.848 H 0.0 **** 0.0
22713 H 19.363 4.861 23.141 H 0.0 **** 0.0
22714 H 20.716 4.41 22.074 H 0.0 **** 0.0
22715 H 20.1 3.246 23.272 H 0.0 **** 0.0
22716 C 1.867 81.952 1.675 C 0.0 **** 0.0
22717 H 1.595 83.007 1.687 H 0.0 **** 0.0
22718 H 2.91 81.843 1.972 H 0.0 **** 0.0
22719 H 1.731 81.553 0.67 H 0.0 **** 0.0
22720 H 1.231 81.405 2.372 H 0.0 **** 0.0
22721 C 77.72 85.893 51.951 C 0.0 **** 0.0
22722 H 77.722 85.799 50.865 H 0.0 **** 0.0
22723 H 78.532 85.298 52.369 H 0.0 **** 0.0
22724 H 76.768 85.537 52.345 H 0.0 **** 0.0
22725 H 77.858 86.939 52.224 H 0.0 **** 0.0
22726 C 27.023 84.287 12.505 C 0.0 **** 0.0
22727 H 27.752 84.197 11.7 H 0.0 **** 0.0
22728 H 27.415 84.948 13.278 H 0.0 **** 0.0
22729 H 26.828 83.303 12.931 H 0.0 **** 0.0
22730 H 26.095 84.702 12.109 H 0.0 **** 0.0
22731 C 45.408 1.938 27.369 C 0.0 **** 0.0
22732 H 45.384 1.943 26.28 H 0.0 **** 0.0
22733 H 44.472 1.53 27.751 H 0.0 **** 0.0
22734 H 45.535 2.958 27.734 H 0.0 **** 0.0
22735 H 46.24 1.323 27.712 H 0.0 **** 0.0
22736 C 32.204 90.843 56.428 C 0.0 **** 0.0
22737 H 33.117 91.072 56.978 H 0.0 **** 0.0
22738 H 32.243 89.814 56.071 H 0.0 **** 0.0
22739 H 32.112 91.519 55.579 H 0.0 **** 0.0
22740 H 31.343 90.967 57.086 H 0.0 **** 0.0
22741 C 87.231 26.279 12.857 C 0.0 **** 0.0
22742 H 87.669 26.454 11.875 H 0.0 **** 0.0
22743 H 86.229 26.707 12.89 H 0.0 **** 0.0
22744 H 87.852 26.748 13.62 H 0.0 **** 0.0
22745 H 87.174 25.206 13.044 H 0.0 **** 0.0
22746 C 26.22 91.417 54.046 C 0.0 **** 0.0
22747 H 26.642 91.313 55.046 H 0.0 **** 0.0
22748 H 26.324 92.45 53.713 H 0.0 **** 0.0
22749 H 25.164 91.146 54.067 H 0.0 **** 0.0
22750 H 26.75 90.758 53.358 H 0.0 **** 0.0
22751 C 3.162 8.822 60.183 C 0.0 **** 0.0
22752 H 3.331 8.087 59.396 H 0.0 **** 0.0
22753 H 3.006 8.31 61.132 H 0.0 **** 0.0
22754 H 2.28 9.415 59.941 H 0.0 **** 0.0
22755 H 4.03 9.477 60.26 H 0.0 **** 0.0
22756 C 42.095 64.09 54.193 C 0.0 **** 0.0
22757 H 42.875 64.69 53.724 H 0.0 **** 0.0
22758 H 41.168 64.196 53.629 H 0.0 **** 0.0
22759 H 41.94 64.433 55.216 H 0.0 **** 0.0
22760 H 42.398 63.043 54.202 H 0.0 **** 0.0
22761 C 83.911 1.102 72.516 C 0.0 **** 0.0
22762 H 83.944 0.046 72.249 H 0.0 **** 0.0
22763 H 84.778 1.61 72.093 H 0.0 **** 0.0
22764 H 83.924 1.203 73.601 H 0.0 **** 0.0
22765 H 82.998 1.548 72.121 H 0.0 **** 0.0
22766 C 50.097 74.033 95.396 C 0.0 **** 0.0
22767 H 50.908 73.552 95.942 H 0.0 **** 0.0
22768 H 49.407 73.274 95.027 H 0.0 **** 0.0
22769 H 50.507 74.592 94.555 H 0.0 **** 0.0
22770 H 49.566 74.715 96.061 H 0.0 **** 0.0
22771 C 4.742 83.666 95.556 C 0.0 **** 0.0
22772 H 4.471 83.928 96.578 H 0.0 **** 0.0
22773 H 5.09 84.557 95.032 H 0.0 **** 0.0
22774 H 3.871 83.26 95.042 H 0.0 **** 0.0
22775 H 5.536 82.919 95.571 H 0.0 **** 0.0
22776 C 50.658 12.016 34.291 C 0.0 **** 0.0
22777 H 51.266 12.157 35.185 H 0.0 **** 0.0
22778 H 51.283 11.634 33.484 H 0.0 **** 0.0
22779 H 50.222 12.97 33.994 H 0.0 **** 0.0
22780 H 49.861 11.303 34.503 H 0.0 **** 0.0
22781 C 6.766 44.526 59.061 C 0.0 **** 0.0
22782 H 6.198 45.286 58.525 H 0.0 **** 0.0
22783 H 6.081 43.891 59.624 H 0.0 **** 0.0
22784 H 7.462 45.008 59.746 H 0.0 **** 0.0
22785 H 7.321 43.918 58.347 H 0.0 **** 0.0
22786 C 41.657 93.02 78.346 C 0.0 **** 0.0
22787 H 42.268 93.533 79.089 H 0.0 **** 0.0
22788 H 41.177 92.156 78.806 H 0.0 **** 0.0
22789 H 42.288 92.69 77.522 H 0.0 **** 0.0
22790 H 40.894 93.702 77.97 H 0.0 **** 0.0
22791 C 61.867 93.688 73.406 C 0.0 **** 0.0
22792 H 60.787 93.712 73.554 H 0.0 **** 0.0
22793 H 62.194 94.629 72.963 H 0.0 **** 0.0
22794 H 62.123 92.863 72.74 H 0.0 **** 0.0
22795 H 62.362 93.546 74.366 H 0.0 **** 0.0
22796 C 28.022 19.938 27.155 C 0.0 **** 0.0
22797 H 27.179 20.595 27.366 H 0.0 **** 0.0
22798 H 28.923 20.536 27.018 H 0.0 **** 0.0
22799 H 27.821 19.37 26.247 H 0.0 **** 0.0
22800 H 28.165 19.251 27.989 H 0.0 **** 0.0
22801 C 97.851 35.02 24.711 C 0.0 **** 0.0
22802 H 97.71 34.689 23.682 H 0.0 **** 0.0
22803 H 97.17 35.844 24.923 H 0.0 **** 0.0
22804 H 98.88 35.354 24.846 H 0.0 **** 0.0
22805 H 97.645 34.193 25.39 H 0.0 **** 0.0
22806 C 57.266 47.023 84.58 C 0.0 **** 0.0
22807 H 58.356 47.059 84.57 H 0.0 **** 0.0
22808 H 56.875 47.971 84.949 H 0.0 **** 0.0
22809 H 56.936 46.215 85.233 H 0.0 **** 0.0
22810 H 56.899 46.847 83.569 H 0.0 **** 0.0
22811 C 62.161 12.715 58.582 C 0.0 **** 0.0
22812 H 62.181 13.638 59.161 H 0.0 **** 0.0
22813 H 62.035 12.952 57.526 H 0.0 **** 0.0
22814 H 61.329 12.095 58.918 H 0.0 **** 0.0
22815 H 63.097 12.176 58.725 H 0.0 **** 0.0
22816 C 70.852 72.36 68.958 C 0.0 **** 0.0
22817 H 71.416 71.874 68.162 H 0.0 **** 0.0
22818 H 71.209 72.005 69.925 H 0.0 **** 0.0
22819 H 69.794 72.12 68.852 H 0.0 **** 0.0
22820 H 70.988 73.439 68.893 H 0.0 **** 0.0
22821 C 92.772 4.067 79.468 C 0.0 **** 0.0
22822 H 92.436 4.544 78.548 H 0.0 **** 0.0
22823 H 91.917 3.894 80.121 H 0.0 **** 0.0
22824 H 93.49 4.714 79.971 H 0.0 **** 0.0
22825 H 93.247 3.115 79.23 H 0.0 **** 0.0
22826 C 34.982 91.439 78.618 C 0.0 **** 0.0
22827 H 34.242 92.234 78.519 H 0.0 **** 0.0
22828 H 34.711 90.792 79.452 H 0.0 **** 0.0
22829 H 35.963 91.878 78.801 H 0.0 **** 0.0
22830 H 35.011 90.855 77.698 H 0.0 **** 0.0
22831 C 6.592 86.723 38.518 C 0.0 **** 0.0
22832 H 5.648 86.726 37.973 H 0.0 **** 0.0
22833 H 7.42 86.79 37.812 H 0.0 **** 0.0
22834 H 6.676 85.8 39.092 H 0.0 **** 0.0
22835 H 6.622 87.576 39.196 H 0.0 **** 0.0
22836 C 26.869 49.241 63.792 C 0.0 **** 0.0
22837 H 26.776 49.743 64.755 H 0.0 **** 0.0
22838 H 27.738 48.582 63.809 H 0.0 **** 0.0
22839 H 26.993 49.986 63.006 H 0.0 **** 0.0
22840 H 25.971 48.654 63.6 H 0.0 **** 0.0
22841 C 21.712 58.25 27.706 C 0.0 **** 0.0
22842 H 21.201 58.489 28.639 H 0.0 **** 0.0
22843 H 21.192 57.432 27.207 H 0.0 **** 0.0
22844 H 22.738 57.951 27.92 H 0.0 **** 0.0
22845 H 21.716 59.127 27.059 H 0.0 **** 0.0
22846 C 24.7 20.145 25.257 C 0.0 **** 0.0
22847 H 25.123 20.461 26.211 H 0.0 **** 0.0
22848 H 24.695 19.056 25.205 H 0.0 **** 0.0
22849 H 25.302 20.546 24.442 H 0.0 **** 0.0
22850 H 23.679 20.518 25.172 H 0.0 **** 0.0
22851 C 49.485 58.564 37.167 C 0.0 **** 0.0
22852 H 49.525 58.598 38.256 H 0.0 **** 0.0
22853 H 50.052 59.4 36.757 H 0.0 **** 0.0
22854 H 48.448 58.632 36.839 H 0.0 **** 0.0
22855 H 49.916 57.626 36.818 H 0.0 **** 0.0
22856 C 88.443 95.708 39.626 C 0.0 **** 0.0
22857 H 88.416 95.699 40.716 H 0.0 **** 0.0
22858 H 89.066 94.887 39.272 H 0.0 **** 0.0
22859 H 88.859 96.655 39.282 H 0.0 **** 0.0
22860 H 87.431 95.593 39.237 H 0.0 **** 0.0
22861 C 51.543 21.434 62.768 C 0.0 **** 0.0
22862 H 52.207 22.272 62.556 H 0.0 **** 0.0
22863 H 51.76 20.616 62.08 H 0.0 **** 0.0
22864 H 50.507 21.75 62.643 H 0.0 **** 0.0
22865 H 51.699 21.098 63.793 H 0.0 **** 0.0
22866 C 53.045 15.579 78.942 C 0.0 **** 0.0
22867 H 53.871 15.099 79.468 H 0.0 **** 0.0
22868 H 53.412 16.02 78.015 H 0.0 **** 0.0
22869 H 52.618 16.359 79.573 H 0.0 **** 0.0
22870 H 52.28 14.837 78.714 H 0.0 **** 0.0
22871 C 78.209 89.285 20.522 C 0.0 **** 0.0
22872 H 77.142 89.076 20.445 H 0.0 **** 0.0
22873 H 78.732 88.388 20.854 H 0.0 **** 0.0
22874 H 78.37 90.088 21.242 H 0.0 **** 0.0
22875 H 78.591 89.589 19.548 H 0.0 **** 0.0
22876 C 80.133 80.841 87.987 C 0.0 **** 0.0
22877 H 81.204 80.95 88.158 H 0.0 **** 0.0
22878 H 79.903 79.794 87.788 H 0.0 **** 0.0
22879 H 79.838 81.447 87.131 H 0.0 **** 0.0
22880 H 79.589 81.171 88.872 H 0.0 **** 0.0
22881 C 83.497 6.601 17.809 C 0.0 **** 0.0
22882 H 83.644 5.991 16.918 H 0.0 **** 0.0
22883 H 84.186 6.278 18.589 H 0.0 **** 0.0
22884 H 82.471 6.489 18.16 H 0.0 **** 0.0
22885 H 83.686 7.648 17.568 H 0.0 **** 0.0
22886 C 47.913 33.775 60.562 C 0.0 **** 0.0
22887 H 48.273 33.539 61.563 H 0.0 **** 0.0
22888 H 47.332 32.937 60.178 H 0.0 **** 0.0
22889 H 48.763 33.961 59.905 H 0.0 **** 0.0
22890 H 47.284 34.665 60.603 H 0.0 **** 0.0
22891 C 49.757 16.81 48.003 C 0.0 **** 0.0
22892 H 49.028 17.618 48.07 H 0.0 **** 0.0
22893 H 49.24 15.851 48.041 H 0.0 **** 0.0
22894 H 50.455 16.881 48.837 H 0.0 **** 0.0
22895 H 50.304 16.891 47.064 H 0.0 **** 0.0
22896 C 81.998 38.09 23.087 C 0.0 **** 0.0
22897 H 81.844 39.129 23.378 H 0.0 **** 0.0
22898 H 82.745 37.637 23.74 H 0.0 **** 0.0
22899 H 82.346 38.049 22.055 H 0.0 **** 0.0
22900 H 81.059 37.545 23.176 H 0.0 **** 0.0
22901 C 96.467 58.57 59.12 C 0.0 **** 0.0
22902 H 96.828 58.916 60.088 H 0.0 **** 0.0
22903 H 96.742 57.524 58.982 H 0.0 **** 0.0
22904 H 96.915 59.171 58.329 H 0.0 **** 0.0
22905 H 95.382 58.669 59.081 H 0.0 **** 0.0
22906 C 19.856 70.392 62.616 C 0.0 **** 0.0
22907 H 19.567 69.454 62.142 H 0.0 **** 0.0
22908 H 20.282 70.187 63.598 H 0.0 **** 0.0
22909 H 18.979 71.029 62.725 H 0.0 **** 0.0
22910 H 20.597 70.898 61.997 H 0.0 **** 0.0
22911 C 41.038 13.065 89.87 C 0.0 **** 0.0
22912 H 40.484 12.358 90.488 H 0.0 **** 0.0
22913 H 42.022 13.235 90.307 H 0.0 **** 0.0
22914 H 40.494 14.008 89.819 H 0.0 **** 0.0
22915 H 41.152 12.657 88.865 H 0.0 **** 0.0
22916 C 21.846 84.39 22.332 C 0.0 **** 0.0
22917 H 21.813 84.667 23.386 H 0.0 **** 0.0
22918 H 22.197 83.363 22.237 H 0.0 **** 0.0
22919 H 22.525 85.058 21.803 H 0.0 **** 0.0
22920 H 20.847 84.474 21.904 H 0.0 **** 0.0
22921 C 33.94 59.043 87.147 C 0.0 **** 0.0
22922 H 33.828 59.018 88.231 H 0.0 **** 0.0
22923 H 32.96 58.948 86.679 H 0.0 **** 0.0
22924 H 34.576 58.217 86.829 H 0.0 **** 0.0
22925 H 34.395 59.987 86.851 H 0.0 **** 0.0
22926 C 57.288 8.985 78.893 C 0.0 **** 0.0
22927 H 57.631 8.328 78.094 H 0.0 **** 0.0
22928 H 58.069 9.708 79.129 H 0.0 **** 0.0
22929 H 57.061 8.392 79.779 H 0.0 **** 0.0
22930 H 56.391 9.512 78.568 H 0.0 **** 0.0
22931 C 85.511 10.919 17.762 C 0.0 **** 0.0
22932 H 85.445 10.632 18.811 H 0.0 **** 0.0
22933 H 85.543 12.006 17.684 H 0.0 **** 0.0
22934 H 84.639 10.542 17.227 H 0.0 **** 0.0
22935 H 86.416 10.497 17.325 H 0.0 **** 0.0
22936 C 6.958 60.36 58.045 C 0.0 **** 0.0
22937 H 7.211 60.178 57.001 H 0.0 **** 0.0
22938 H 6.032 59.839 58.291 H 0.0 **** 0.0
22939 H 6.827 61.431 58.205 H 0.0 **** 0.0
22940 H 7.762 59.994 58.683 H 0.0 **** 0.0
22941 C 28.885 17.83 13.667 C 0.0 **** 0.0
22942 H 28.964 18.676 14.35 H 0.0 **** 0.0
22943 H 29.87 17.596 13.264 H 0.0 **** 0.0
22944 H 28.209 18.084 12.851 H 0.0 **** 0.0
22945 H 28.497 16.964 14.205 H 0.0 **** 0.0
22946 C 4.343 60.151 91.183 C 0.0 **** 0.0
22947 H 4.83 59.927 90.234 H 0.0 **** 0.0
22948 H 3.49 60.806 91.008 H 0.0 **** 0.0
22949 H 5.052 60.647 91.847 H 0.0 **** 0.0
22950 H 4.002 59.224 91.643 H 0.0 **** 0.0
22951 C 41.023 87.772 49.674 C 0.0 **** 0.0
22952 H 40.945 87.891 48.593 H 0.0 **** 0.0
22953 H 42.06 87.569 49.943 H 0.0 **** 0.0
22954 H 40.394 86.942 49.994 H 0.0 **** 0.0
22955 H 40.693 88.688 50.164 H 0.0 **** 0.0
22956 C 78.43 58.077 75.111 C 0.0 **** 0.0
22957 H 78.392 58.296 76.178 H 0.0 **** 0.0
22958 H 78.736 58.971 74.568 H 0.0 **** 0.0
22959 H 77.443 57.764 74.77 H 0.0 **** 0.0
22960 H 79.148 57.278 74.93 H 0.0 **** 0.0
22961 C 4.294 52.913 97.071 C 0.0 **** 0.0
22962 H 3.885 53.676 97.733 H 0.0 **** 0.0
22963 H 4.207 51.935 97.545 H 0.0 **** 0.0
22964 H 5.344 53.129 96.873 H 0.0 **** 0.0
22965 H 3.741 52.913 96.131 H 0.0 **** 0.0
22966 C 59.055 46.577 72.856 C 0.0 **** 0.0
22967 H 58.254 45.966 73.273 H 0.0 **** 0.0
22968 H 58.626 47.369 72.241 H 0.0 **** 0.0
22969 H 59.706 45.953 72.244 H 0.0 **** 0.0
22970 H 59.633 47.019 73.667 H 0.0 **** 0.0
22971 C 94.731 89.226 11.135 C 0.0 **** 0.0
22972 H 94.41 90.265 11.2 H 0.0 **** 0.0
22973 H 95.636 89.162 10.531 H 0.0 **** 0.0
22974 H 93.942 88.631 10.674 H 0.0 **** 0.0
22975 H 94.934 88.845 12.136 H 0.0 **** 0.0
22976 C 65.875 49.987 45.136 C 0.0 **** 0.0
22977 H 65.116 49.226 44.955 H 0.0 **** 0.0
22978 H 66.866 49.547 45.019 H 0.0 **** 0.0
22979 H 65.766 50.374 46.149 H 0.0 **** 0.0
22980 H 65.752 50.8 44.421 H 0.0 **** 0.0
22981 C 59.212 6.944 38.786 C 0.0 **** 0.0
22982 H 58.849 7.167 37.782 H 0.0 **** 0.0
22983 H 59.574 7.86 39.253 H 0.0 **** 0.0
22984 H 60.026 6.221 38.724 H 0.0 **** 0.0
22985 H 58.4 6.527 39.382 H 0.0 **** 0.0
22986 C 94.76 29.845 48.467 C 0.0 **** 0.0
22987 H 94.938 30.319 49.432 H 0.0 **** 0.0
22988 H 94.279 28.879 48.62 H 0.0 **** 0.0
22989 H 95.711 29.701 47.952 H 0.0 **** 0.0
22990 H 94.113 30.482 47.863 H 0.0 **** 0.0
22991 C 32.713 83.828 73.355 C 0.0 **** 0.0
22992 H 31.693 84.03 73.03 H 0.0 **** 0.0
22993 H 32.829 82.761 73.547 H 0.0 **** 0.0
22994 H 32.921 84.387 74.267 H 0.0 **** 0.0
22995 H 33.41 84.135 72.574 H 0.0 **** 0.0
22996 C 15.749 8.04 92.92 C 0.0 **** 0.0
22997 H 15.196 7.165 93.26 H 0.0 **** 0.0
22998 H 15.074 8.714 92.393 H 0.0 **** 0.0
22999 H 16.548 7.726 92.248 H 0.0 **** 0.0
23000 H 16.179 8.554 93.78 H 0.0 **** 0.0
23001 C 14.103 86.247 85.341 C 0.0 **** 0.0
23002 H 14.009 86.376 86.42 H 0.0 **** 0.0
23003 H 15.009 86.745 84.994 H 0.0 **** 0.0
23004 H 13.235 86.683 84.847 H 0.0 **** 0.0
23005 H 14.16 85.184 85.106 H 0.0 **** 0.0
23006 C 78.793 29.232 5.286 C 0.0 **** 0.0
23007 H 77.927 29.844 5.538 H 0.0 **** 0.0
23008 H 79.328 29.685 4.452 H 0.0 **** 0.0
23009 H 78.461 28.232 5.006 H 0.0 **** 0.0
23010 H 79.454 29.166 6.15 H 0.0 **** 0.0
23011 C 95.843 0.841 19.115 C 0.0 **** 0.0
23012 H 96.508 1.604 18.71 H 0.0 **** 0.0
23013 H 96.226 0.499 20.077 H 0.0 **** 0.0
23014 H 95.791 0.0 18.424 H 0.0 **** 0.0
23015 H 94.847 1.263 19.25 H 0.0 **** 0.0
23016 C 76.118 76.027 49.408 C 0.0 **** 0.0
23017 H 76.635 75.897 48.457 H 0.0 **** 0.0
23018 H 76.578 76.845 49.962 H 0.0 **** 0.0
23019 H 76.191 75.108 49.989 H 0.0 **** 0.0
23020 H 75.069 76.257 49.222 H 0.0 **** 0.0
23021 C 90.427 52.556 37.831 C 0.0 **** 0.0
23022 H 91.276 53.205 37.615 H 0.0 **** 0.0
23023 H 89.73 52.578 36.993 H 0.0 **** 0.0
23024 H 89.924 52.904 38.733 H 0.0 **** 0.0
23025 H 90.78 51.535 37.983 H 0.0 **** 0.0
23026 C 79.364 88.712 79.607 C 0.0 **** 0.0
23027 H 78.708 88.845 80.467 H 0.0 **** 0.0
23028 H 79.508 89.671 79.108 H 0.0 **** 0.0
23029 H 78.912 88.004 78.912 H 0.0 **** 0.0
23030 H 80.328 88.328 79.941 H 0.0 **** 0.0
23031 C 38.843 88.512 27.958 C 0.0 **** 0.0
23032 H 38.876 88.913 26.945 H 0.0 **** 0.0
23033 H 38.975 87.431 27.926 H 0.0 **** 0.0
23034 H 37.879 88.747 28.41 H 0.0 **** 0.0
23035 H 39.64 88.959 28.552 H 0.0 **** 0.0
23036 C 3.465 43.497 45.754 C 0.0 **** 0.0
23037 H 3.366 43.459 44.67 H 0.0 **** 0.0
23038 H 4.277 42.842 46.068 H 0.0 **** 0.0
23039 H 2.533 43.168 46.216 H 0.0 **** 0.0
23040 H 3.681 44.52 46.063 H 0.0 **** 0.0
23041 C 1.182 56.833 16.0 C 0.0 **** 0.0
23042 H 1.54 56.467 15.038 H 0.0 **** 0.0
23043 H 2.034 57.058 16.642 H 0.0 **** 0.0
23044 H 0.564 56.069 16.471 H 0.0 **** 0.0
23045 H 0.591 57.736 15.849 H 0.0 **** 0.0
23046 C 20.362 22.385 96.712 C 0.0 **** 0.0
23047 H 20.949 23.017 97.378 H 0.0 **** 0.0
23048 H 20.303 21.378 97.125 H 0.0 **** 0.0
23049 H 20.84 22.349 95.733 H 0.0 **** 0.0
23050 H 19.358 22.797 96.611 H 0.0 **** 0.0
23051 C 38.203 55.823 8.13 C 0.0 **** 0.0
23052 H 37.133 56.026 8.087 H 0.0 **** 0.0
23053 H 38.693 56.274 7.266 H 0.0 **** 0.0
23054 H 38.368 54.746 8.12 H 0.0 **** 0.0
23055 H 38.616 56.246 9.045 H 0.0 **** 0.0
23056 C 96.488 84.001 86.506 C 0.0 **** 0.0
23057 H 95.951 83.053 86.515 H 0.0 **** 0.0
23058 H 96.258 84.558 87.415 H 0.0 **** 0.0
23059 H 96.183 84.583 85.636 H 0.0 **** 0.0
23060 H 97.56 83.811 86.458 H 0.0 **** 0.0
23061 C 63.6 87.973 3.784 C 0.0 **** 0.0
23062 H 63.931 88.547 2.919 H 0.0 **** 0.0
23063 H 63.766 86.911 3.6 H 0.0 **** 0.0
23064 H 62.538 88.151 3.954 H 0.0 **** 0.0
23065 H 64.166 88.282 4.663 H 0.0 **** 0.0
23066 C 90.244 78.904 89.996 C 0.0 **** 0.0
23067 H 90.394 79.229 91.025 H 0.0 **** 0.0
23068 H 91.138 79.121 89.412 H 0.0 **** 0.0
23069 H 89.393 79.434 89.568 H 0.0 **** 0.0
23070 H 90.049 77.832 89.979 H 0.0 **** 0.0
23071 C 60.249 3.46 8.328 C 0.0 **** 0.0
23072 H 59.525 3.474 7.513 H 0.0 **** 0.0
23073 H 60.051 2.605 8.975 H 0.0 **** 0.0
23074 H 60.165 4.381 8.905 H 0.0 **** 0.0
23075 H 61.256 3.379 7.917 H 0.0 **** 0.0
23076 C 97.486 16.223 48.22 C 0.0 **** 0.0
23077 H 97.191 16.764 49.119 H 0.0 **** 0.0
23078 H 96.615 15.722 47.796 H 0.0 **** 0.0
23079 H 98.244 15.483 48.473 H 0.0 **** 0.0
23080 H 97.892 16.925 47.491 H 0.0 **** 0.0
23081 C 35.694 1.048 16.089 C 0.0 **** 0.0
23082 H 35.825 1.371 17.122 H 0.0 **** 0.0
23083 H 36.638 1.15 15.554 H 0.0 **** 0.0
23084 H 34.935 1.667 15.609 H 0.0 **** 0.0
23085 H 35.376 0.006 16.072 H 0.0 **** 0.0
23086 C 80.481 3.246 76.097 C 0.0 **** 0.0
23087 H 81.426 2.718 76.227 H 0.0 **** 0.0
23088 H 79.687 2.526 75.899 H 0.0 **** 0.0
23089 H 80.564 3.936 75.258 H 0.0 **** 0.0
23090 H 80.248 3.803 77.004 H 0.0 **** 0.0
23091 C 3.691 35.049 48.432 C 0.0 **** 0.0
23092 H 2.701 35.505 48.416 H 0.0 **** 0.0
23093 H 4.379 35.696 48.977 H 0.0 **** 0.0
23094 H 4.047 34.917 47.41 H 0.0 **** 0.0
23095 H 3.636 34.079 48.926 H 0.0 **** 0.0
23096 C 60.181 8.958 17.064 C 0.0 **** 0.0
23097 H 60.199 7.973 17.529 H 0.0 **** 0.0
23098 H 61.202 9.316 16.931 H 0.0 **** 0.0
23099 H 59.633 9.651 17.703 H 0.0 **** 0.0
23100 H 59.689 8.892 16.093 H 0.0 **** 0.0
23101 C 58.374 65.78 39.023 C 0.0 **** 0.0
23102 H 58.33 65.734 37.935 H 0.0 **** 0.0
23103 H 58.788 64.848 39.409 H 0.0 **** 0.0
23104 H 57.37 65.924 39.421 H 0.0 **** 0.0
23105 H 59.008 66.613 39.326 H 0.0 **** 0.0
23106 C 41.695 37.218 57.756 C 0.0 **** 0.0
23107 H 42.242 37.146 58.697 H 0.0 **** 0.0
23108 H 40.946 36.427 57.711 H 0.0 **** 0.0
23109 H 42.39 37.108 56.924 H 0.0 **** 0.0
23110 H 41.205 38.189 57.694 H 0.0 **** 0.0
23111 C 33.857 37.151 51.108 C 0.0 **** 0.0
23112 H 33.27 36.837 51.971 H 0.0 **** 0.0
23113 H 34.594 36.383 50.871 H 0.0 **** 0.0
23114 H 34.367 38.087 51.336 H 0.0 **** 0.0
23115 H 33.197 37.296 50.253 H 0.0 **** 0.0
23116 C 18.893 60.688 74.31 C 0.0 **** 0.0
23117 H 18.23 60.815 75.166 H 0.0 **** 0.0
23118 H 19.862 60.326 74.651 H 0.0 **** 0.0
23119 H 19.02 61.645 73.803 H 0.0 **** 0.0
23120 H 18.458 59.966 73.618 H 0.0 **** 0.0
23121 C 40.493 77.706 93.946 C 0.0 **** 0.0
23122 H 40.669 77.297 94.941 H 0.0 **** 0.0
23123 H 41.075 77.144 93.215 H 0.0 **** 0.0
23124 H 40.795 78.753 93.925 H 0.0 **** 0.0
23125 H 39.433 77.628 93.704 H 0.0 **** 0.0
23126 C 10.741 65.888 3.713 C 0.0 **** 0.0
23127 H 9.943 65.486 3.089 H 0.0 **** 0.0
23128 H 11.355 66.569 3.123 H 0.0 **** 0.0
23129 H 11.359 65.071 4.085 H 0.0 **** 0.0
23130 H 10.306 66.428 4.554 H 0.0 **** 0.0
23131 C 76.62 52.396 97.675 C 0.0 **** 0.0
23132 H 77.01 52.41 96.657 H 0.0 **** 0.0
23133 H 77.45 52.41 98.382 H 0.0 **** 0.0
23134 H 76.03 51.492 97.825 H 0.0 **** 0.0
23135 H 75.991 53.272 97.835 H 0.0 **** 0.0
23136 C 65.867 47.417 18.321 C 0.0 **** 0.0
23137 H 64.81 47.5 18.071 H 0.0 **** 0.0
23138 H 66.412 48.248 17.874 H 0.0 **** 0.0
23139 H 66.259 46.476 17.935 H 0.0 **** 0.0
23140 H 65.988 47.444 19.404 H 0.0 **** 0.0
23141 C 90.088 23.573 42.829 C 0.0 **** 0.0
23142 H 89.878 22.621 43.318 H 0.0 **** 0.0
23143 H 90.798 24.141 43.43 H 0.0 **** 0.0
23144 H 89.162 24.139 42.726 H 0.0 **** 0.0
23145 H 90.513 23.388 41.843 H 0.0 **** 0.0
23146 C 41.93 77.34 77.171 C 0.0 **** 0.0
23147 H 41.273 76.891 77.916 H 0.0 **** 0.0
23148 H 41.393 78.127 76.641 H 0.0 **** 0.0
23149 H 42.25 76.576 76.462 H 0.0 **** 0.0
23150 H 42.803 77.765 77.665 H 0.0 **** 0.0
23151 C 59.041 10.771 74.196 C 0.0 **** 0.0
23152 H 59.036 10.799 75.286 H 0.0 **** 0.0
23153 H 59.197 11.778 73.808 H 0.0 **** 0.0
23154 H 58.087 10.386 73.838 H 0.0 **** 0.0
23155 H 59.847 10.121 73.855 H 0.0 **** 0.0
23156 C 3.424 42.499 57.235 C 0.0 **** 0.0
23157 H 3.805 42.458 58.255 H 0.0 **** 0.0
23158 H 3.329 41.486 56.842 H 0.0 **** 0.0
23159 H 4.114 43.068 56.612 H 0.0 **** 0.0
23160 H 2.448 42.983 57.231 H 0.0 **** 0.0
23161 C 78.712 85.266 61.926 C 0.0 **** 0.0
23162 H 77.733 85.714 61.754 H 0.0 **** 0.0
23163 H 79.488 85.931 61.545 H 0.0 **** 0.0
23164 H 78.769 84.308 61.41 H 0.0 **** 0.0
23165 H 78.857 85.112 62.996 H 0.0 **** 0.0
23166 C 71.37 9.541 36.368 C 0.0 **** 0.0
23167 H 71.277 10.047 35.407 H 0.0 **** 0.0
23168 H 70.381 9.411 36.807 H 0.0 **** 0.0
23169 H 71.989 10.14 37.036 H 0.0 **** 0.0
23170 H 71.833 8.565 36.22 H 0.0 **** 0.0
23171 C 72.943 11.346 59.862 C 0.0 **** 0.0
23172 H 72.905 11.289 60.95 H 0.0 **** 0.0
23173 H 72.578 12.32 59.536 H 0.0 **** 0.0
23174 H 72.317 10.562 59.435 H 0.0 **** 0.0
23175 H 73.971 11.213 59.527 H 0.0 **** 0.0
23176 C 57.152 76.091 45.26 C 0.0 **** 0.0
23177 H 57.654 76.946 45.711 H 0.0 **** 0.0
23178 H 57.87 75.515 44.676 H 0.0 **** 0.0
23179 H 56.351 76.442 44.608 H 0.0 **** 0.0
23180 H 56.732 75.461 46.044 H 0.0 **** 0.0
23181 C 3.469 63.668 31.742 C 0.0 **** 0.0
23182 H 2.855 63.474 32.621 H 0.0 **** 0.0
23183 H 4.226 64.414 31.984 H 0.0 **** 0.0
23184 H 2.838 64.039 30.934 H 0.0 **** 0.0
23185 H 3.956 62.745 31.428 H 0.0 **** 0.0
23186 C 3.653 28.483 34.843 C 0.0 **** 0.0
23187 H 3.222 28.701 33.867 H 0.0 **** 0.0
23188 H 3.366 27.477 35.151 H 0.0 **** 0.0
23189 H 3.285 29.205 35.572 H 0.0 **** 0.0
23190 H 4.74 28.549 34.783 H 0.0 **** 0.0
23191 C 14.479 47.878 49.431 C 0.0 **** 0.0
23192 H 14.727 47.302 50.323 H 0.0 **** 0.0
23193 H 13.423 47.745 49.195 H 0.0 **** 0.0
23194 H 15.086 47.531 48.595 H 0.0 **** 0.0
23195 H 14.681 48.934 49.613 H 0.0 **** 0.0
23196 C 73.064 89.636 52.424 C 0.0 **** 0.0
23197 H 73.598 89.927 53.328 H 0.0 **** 0.0
23198 H 71.99 89.692 52.603 H 0.0 **** 0.0
23199 H 73.335 88.615 52.154 H 0.0 **** 0.0
23200 H 73.333 90.31 51.611 H 0.0 **** 0.0
23201 C 94.496 27.199 16.155 C 0.0 **** 0.0
23202 H 93.631 27.272 15.496 H 0.0 **** 0.0
23203 H 94.272 26.515 16.974 H 0.0 **** 0.0
23204 H 94.73 28.184 16.558 H 0.0 **** 0.0
23205 H 95.351 26.825 15.592 H 0.0 **** 0.0
23206 C 90.474 53.121 13.314 C 0.0 **** 0.0
23207 H 89.618 52.618 12.864 H 0.0 **** 0.0
23208 H 91.329 52.445 13.325 H 0.0 **** 0.0
23209 H 90.228 53.413 14.335 H 0.0 **** 0.0
23210 H 90.721 54.009 12.732 H 0.0 **** 0.0
23211 C 93.038 65.383 59.242 C 0.0 **** 0.0
23212 H 93.023 66.273 59.872 H 0.0 **** 0.0
23213 H 93.737 65.534 58.419 H 0.0 **** 0.0
23214 H 92.04 65.204 58.843 H 0.0 **** 0.0
23215 H 93.353 64.524 59.834 H 0.0 **** 0.0
23216 C 78.389 38.879 27.382 C 0.0 **** 0.0
23217 H 78.416 38.899 28.471 H 0.0 **** 0.0
23218 H 77.362 38.734 27.046 H 0.0 **** 0.0
23219 H 79.01 38.059 27.019 H 0.0 **** 0.0
23220 H 78.769 39.823 26.991 H 0.0 **** 0.0
23221 C 86.672 81.026 67.36 C 0.0 **** 0.0
23222 H 87.163 80.405 68.11 H 0.0 **** 0.0
23223 H 86.102 80.392 66.681 H 0.0 **** 0.0
23224 H 87.425 81.577 66.797 H 0.0 **** 0.0
23225 H 86.0 81.728 67.853 H 0.0 **** 0.0
23226 C 80.727 87.919 27.199 C 0.0 **** 0.0
23227 H 80.794 88.961 27.511 H 0.0 **** 0.0
23228 H 79.855 87.457 27.663 H 0.0 **** 0.0
23229 H 81.627 87.389 27.509 H 0.0 **** 0.0
23230 H 80.631 87.87 26.115 H 0.0 **** 0.0
23231 C 31.809 46.03 87.298 C 0.0 **** 0.0
23232 H 31.92 46.413 88.312 H 0.0 **** 0.0
23233 H 31.521 46.844 86.632 H 0.0 **** 0.0
23234 H 31.039 45.258 87.283 H 0.0 **** 0.0
23235 H 32.756 45.605 86.965 H 0.0 **** 0.0
23236 C 89.771 21.206 20.329 C 0.0 **** 0.0
23237 H 88.996 21.972 20.289 H 0.0 **** 0.0
23238 H 90.744 21.665 20.153 H 0.0 **** 0.0
23239 H 89.578 20.455 19.563 H 0.0 **** 0.0
23240 H 89.764 20.734 21.311 H 0.0 **** 0.0
23241 C 6.131 87.603 46.276 C 0.0 **** 0.0
23242 H 5.621 87.381 47.213 H 0.0 **** 0.0
23243 H 5.507 87.286 45.439 H 0.0 **** 0.0
23244 H 7.081 87.07 46.244 H 0.0 **** 0.0
23245 H 6.313 88.676 46.207 H 0.0 **** 0.0
23246 C 70.772 84.582 43.493 C 0.0 **** 0.0
23247 H 71.327 85.331 44.059 H 0.0 **** 0.0
23248 H 71.414 83.722 43.303 H 0.0 **** 0.0
23249 H 70.448 85.011 42.545 H 0.0 **** 0.0
23250 H 69.9 84.266 44.066 H 0.0 **** 0.0
23251 C 44.181 53.933 47.892 C 0.0 **** 0.0
23252 H 44.304 54.067 46.817 H 0.0 **** 0.0
23253 H 44.409 52.901 48.158 H 0.0 **** 0.0
23254 H 43.153 54.163 48.171 H 0.0 **** 0.0
23255 H 44.86 54.603 48.421 H 0.0 **** 0.0
23256 C 86.128 22.383 33.136 C 0.0 **** 0.0
23257 H 85.836 21.676 32.359 H 0.0 **** 0.0
23258 H 85.571 23.312 33.009 H 0.0 **** 0.0
23259 H 87.196 22.586 33.059 H 0.0 **** 0.0
23260 H 85.908 21.958 34.115 H 0.0 **** 0.0
23261 C 98.196 79.109 13.766 C 0.0 **** 0.0
23262 H 98.593 79.945 13.189 H 0.0 **** 0.0
23263 H 99.0 78.65 14.341 H 0.0 **** 0.0
23264 H 97.767 78.372 13.088 H 0.0 **** 0.0
23265 H 97.424 79.471 14.445 H 0.0 **** 0.0
23266 C 10.778 20.733 4.739 C 0.0 **** 0.0
23267 H 11.572 20.103 5.141 H 0.0 **** 0.0
23268 H 11.213 21.636 4.309 H 0.0 **** 0.0
23269 H 10.09 21.005 5.54 H 0.0 **** 0.0
23270 H 10.238 20.186 3.966 H 0.0 **** 0.0
23271 C 60.85 87.85 62.312 C 0.0 **** 0.0
23272 H 59.844 88.027 62.692 H 0.0 **** 0.0
23273 H 60.823 87.797 61.223 H 0.0 **** 0.0
23274 H 61.229 86.909 62.712 H 0.0 **** 0.0
23275 H 61.504 88.665 62.621 H 0.0 **** 0.0
23276 C 88.029 16.642 73.72 C 0.0 **** 0.0
23277 H 88.733 16.834 72.91 H 0.0 **** 0.0
23278 H 87.075 16.319 73.303 H 0.0 **** 0.0
23279 H 87.884 17.555 74.298 H 0.0 **** 0.0
23280 H 88.426 15.861 74.368 H 0.0 **** 0.0
23281 C 96.36 24.387 22.511 C 0.0 **** 0.0
23282 H 96.846 23.944 21.642 H 0.0 **** 0.0
23283 H 95.409 24.827 22.209 H 0.0 **** 0.0
23284 H 97.002 25.161 22.931 H 0.0 **** 0.0
23285 H 96.182 23.616 23.261 H 0.0 **** 0.0
23286 C 58.778 5.41 68.492 C 0.0 **** 0.0
23287 H 59.742 5.78 68.841 H 0.0 **** 0.0
23288 H 58.931 4.528 67.87 H 0.0 **** 0.0
23289 H 58.281 6.185 67.909 H 0.0 **** 0.0
23290 H 58.159 5.146 69.35 H 0.0 **** 0.0
23291 C 19.217 94.972 76.818 C 0.0 **** 0.0
23292 H 18.637 95.86 77.068 H 0.0 **** 0.0
23293 H 19.417 94.96 75.746 H 0.0 **** 0.0
23294 H 18.654 94.081 77.093 H 0.0 **** 0.0
23295 H 20.16 94.989 77.364 H 0.0 **** 0.0
23296 C 78.504 72.788 35.557 C 0.0 **** 0.0
23297 H 78.645 72.361 36.55 H 0.0 **** 0.0
23298 H 78.745 72.039 34.803 H 0.0 **** 0.0
23299 H 79.16 73.65 35.436 H 0.0 **** 0.0
23300 H 77.467 73.101 35.441 H 0.0 **** 0.0
23301 C 8.739 74.576 54.098 C 0.0 **** 0.0
23302 H 8.949 75.539 54.564 H 0.0 **** 0.0
23303 H 7.668 74.378 54.142 H 0.0 **** 0.0
23304 H 9.277 73.791 54.629 H 0.0 **** 0.0
23305 H 9.063 74.599 53.058 H 0.0 **** 0.0
23306 C 28.023 14.231 88.61 C 0.0 **** 0.0
23307 H 27.674 14.273 87.578 H 0.0 **** 0.0
23308 H 28.712 13.394 88.726 H 0.0 **** 0.0
23309 H 27.171 14.097 89.276 H 0.0 **** 0.0
23310 H 28.535 15.161 88.858 H 0.0 **** 0.0
23311 C 68.405 11.022 7.688 C 0.0 **** 0.0
23312 H 67.362 11.096 7.382 H 0.0 **** 0.0
23313 H 68.769 12.008 7.978 H 0.0 **** 0.0
23314 H 69.001 10.644 6.858 H 0.0 **** 0.0
23315 H 68.488 10.34 8.535 H 0.0 **** 0.0
23316 C 95.756 3.519 29.873 C 0.0 **** 0.0
23317 H 95.689 4.002 30.848 H 0.0 **** 0.0
23318 H 96.021 2.469 30.005 H 0.0 **** 0.0
23319 H 96.521 4.014 29.274 H 0.0 **** 0.0
23320 H 94.795 3.59 29.365 H 0.0 **** 0.0
23321 C 57.632 80.477 53.194 C 0.0 **** 0.0
23322 H 57.553 80.611 52.115 H 0.0 **** 0.0
23323 H 57.407 81.419 53.694 H 0.0 **** 0.0
23324 H 58.645 80.163 53.447 H 0.0 **** 0.0
23325 H 56.924 79.715 53.517 H 0.0 **** 0.0
23326 C 49.714 60.779 76.652 C 0.0 **** 0.0
23327 H 49.52 60.419 77.662 H 0.0 **** 0.0
23328 H 50.171 59.983 76.065 H 0.0 **** 0.0
23329 H 50.389 61.633 76.695 H 0.0 **** 0.0
23330 H 48.775 61.081 76.188 H 0.0 **** 0.0
23331 C 41.265 34.466 42.101 C 0.0 **** 0.0
23332 H 41.659 33.496 42.405 H 0.0 **** 0.0
23333 H 42.017 35.235 42.276 H 0.0 **** 0.0
23334 H 40.371 34.692 42.681 H 0.0 **** 0.0
23335 H 41.014 34.438 41.04 H 0.0 **** 0.0
23336 C 52.429 26.144 83.194 C 0.0 **** 0.0
23337 H 52.209 26.081 84.259 H 0.0 **** 0.0
23338 H 53.241 25.46 82.949 H 0.0 **** 0.0
23339 H 52.724 27.164 82.945 H 0.0 **** 0.0
23340 H 51.54 25.874 82.623 H 0.0 **** 0.0
23341 C 79.733 95.919 67.646 C 0.0 **** 0.0
23342 H 78.941 95.828 68.389 H 0.0 **** 0.0
23343 H 79.597 96.843 67.083 H 0.0 **** 0.0
23344 H 79.691 95.069 66.965 H 0.0 **** 0.0
23345 H 80.7 95.936 68.147 H 0.0 **** 0.0
23346 C 20.367 61.195 13.425 C 0.0 **** 0.0
23347 H 20.769 61.949 12.748 H 0.0 **** 0.0
23348 H 20.739 60.212 13.136 H 0.0 **** 0.0
23349 H 19.279 61.203 13.372 H 0.0 **** 0.0
23350 H 20.683 61.418 14.445 H 0.0 **** 0.0
23351 C 31.061 25.37 75.486 C 0.0 **** 0.0
23352 H 32.012 25.527 74.976 H 0.0 **** 0.0
23353 H 30.243 25.646 74.822 H 0.0 **** 0.0
23354 H 31.025 25.988 76.384 H 0.0 **** 0.0
23355 H 30.967 24.32 75.764 H 0.0 **** 0.0
23356 C 92.453 52.584 58.26 C 0.0 **** 0.0
23357 H 92.823 52.027 57.4 H 0.0 **** 0.0
23358 H 92.873 52.163 59.174 H 0.0 **** 0.0
23359 H 91.365 52.517 58.295 H 0.0 **** 0.0
23360 H 92.75 53.629 58.171 H 0.0 **** 0.0
23361 C 63.271 77.291 94.742 C 0.0 **** 0.0
23362 H 63.83 76.524 94.205 H 0.0 **** 0.0
23363 H 63.325 78.231 94.192 H 0.0 **** 0.0
23364 H 63.7 77.425 95.735 H 0.0 **** 0.0
23365 H 62.23 76.983 94.834 H 0.0 **** 0.0
23366 C 98.017 4.053 40.439 C 0.0 **** 0.0
23367 H 98.218 4.054 39.367 H 0.0 **** 0.0
23368 H 98.294 3.086 40.859 H 0.0 **** 0.0
23369 H 96.956 4.234 40.61 H 0.0 **** 0.0
23370 H 98.601 4.839 40.918 H 0.0 **** 0.0
23371 C 57.897 88.581 60.772 C 0.0 **** 0.0
23372 H 57.228 89.364 60.415 H 0.0 **** 0.0
23373 H 57.638 88.323 61.799 H 0.0 **** 0.0
23374 H 58.926 88.938 60.735 H 0.0 **** 0.0
23375 H 57.795 87.7 60.139 H 0.0 **** 0.0
23376 C 0.692 68.411 43.652 C 0.0 **** 0.0
23377 H 0.195 67.83 44.429 H 0.0 **** 0.0
23378 H 1.568 67.869 43.297 H 0.0 **** 0.0
23379 H 1.001 69.373 44.061 H 0.0 **** 0.0
23380 H 0.003 68.574 42.823 H 0.0 **** 0.0
23381 C 57.088 0.757 15.28 C 0.0 **** 0.0
23382 H 56.755 0.198 16.154 H 0.0 **** 0.0
23383 H 56.227 1.003 14.657 H 0.0 **** 0.0
23384 H 57.789 0.15 14.707 H 0.0 **** 0.0
23385 H 57.579 1.675 15.601 H 0.0 **** 0.0
23386 C 9.583 2.047 51.569 C 0.0 **** 0.0
23387 H 9.077 2.525 52.408 H 0.0 **** 0.0
23388 H 10.313 1.331 51.946 H 0.0 **** 0.0
23389 H 10.09 2.804 50.971 H 0.0 **** 0.0
23390 H 8.849 1.527 50.952 H 0.0 **** 0.0
23391 C 36.276 37.788 83.29 C 0.0 **** 0.0
23392 H 36.986 38.276 82.624 H 0.0 **** 0.0
23393 H 35.261 38.069 83.008 H 0.0 **** 0.0
23394 H 36.467 38.1 84.317 H 0.0 **** 0.0
23395 H 36.389 36.706 83.212 H 0.0 **** 0.0
23396 C 74.126 5.595 32.168 C 0.0 **** 0.0
23397 H 74.747 5.396 31.295 H 0.0 **** 0.0
23398 H 74.725 5.483 33.072 H 0.0 **** 0.0
23399 H 73.296 4.89 32.192 H 0.0 **** 0.0
23400 H 73.738 6.612 32.113 H 0.0 **** 0.0
23401 C 84.313 69.257 20.374 C 0.0 **** 0.0
23402 H 83.891 69.756 19.501 H 0.0 **** 0.0
23403 H 83.588 68.545 20.77 H 0.0 **** 0.0
23404 H 84.55 69.998 21.137 H 0.0 **** 0.0
23405 H 85.222 68.729 20.085 H 0.0 **** 0.0
23406 C 13.865 81.213 13.401 C 0.0 **** 0.0
23407 H 13.388 81.39 12.437 H 0.0 **** 0.0
23408 H 13.443 80.317 13.856 H 0.0 **** 0.0
23409 H 13.693 82.069 14.053 H 0.0 **** 0.0
23410 H 14.937 81.077 13.256 H 0.0 **** 0.0
23411 C 72.906 49.323 52.538 C 0.0 **** 0.0
23412 H 72.804 49.69 53.559 H 0.0 **** 0.0
23413 H 71.927 49.307 52.059 H 0.0 **** 0.0
23414 H 73.32 48.315 52.553 H 0.0 **** 0.0
23415 H 73.573 49.981 51.981 H 0.0 **** 0.0
23416 C 97.927 68.23 19.498 C 0.0 **** 0.0
23417 H 97.654 68.703 18.555 H 0.0 **** 0.0
23418 H 97.367 68.69 20.312 H 0.0 **** 0.0
23419 H 98.995 68.359 19.673 H 0.0 **** 0.0
23420 H 97.693 67.166 19.452 H 0.0 **** 0.0
23421 C 70.91 21.039 81.676 C 0.0 **** 0.0
23422 H 70.89 21.042 82.766 H 0.0 **** 0.0
23423 H 70.408 21.931 81.301 H 0.0 **** 0.0
23424 H 70.397 20.15 81.307 H 0.0 **** 0.0
23425 H 71.944 21.031 81.332 H 0.0 **** 0.0
23426 C 12.382 20.253 21.915 C 0.0 **** 0.0
23427 H 12.407 20.617 20.887 H 0.0 **** 0.0
23428 H 13.062 20.847 22.526 H 0.0 **** 0.0
23429 H 12.691 19.208 21.938 H 0.0 **** 0.0
23430 H 11.369 20.342 22.306 H 0.0 **** 0.0
23431 C 75.893 54.073 67.128 C 0.0 **** 0.0
23432 H 76.554 53.944 66.271 H 0.0 **** 0.0
23433 H 75.807 53.128 67.666 H 0.0 **** 0.0
23434 H 74.908 54.386 66.783 H 0.0 **** 0.0
23435 H 76.304 54.833 67.792 H 0.0 **** 0.0
23436 C 22.699 29.433 10.897 C 0.0 **** 0.0
23437 H 22.697 29.348 9.811 H 0.0 **** 0.0
23438 H 21.96 30.174 11.204 H 0.0 **** 0.0
23439 H 23.688 29.745 11.235 H 0.0 **** 0.0
23440 H 22.452 28.468 11.338 H 0.0 **** 0.0
23441 C 62.933 53.459 47.074 C 0.0 **** 0.0
23442 H 63.095 53.355 46.001 H 0.0 **** 0.0
23443 H 61.945 53.884 47.252 H 0.0 **** 0.0
23444 H 63.693 54.117 47.493 H 0.0 **** 0.0
23445 H 62.998 52.479 47.547 H 0.0 **** 0.0
23446 C 49.268 19.555 74.038 C 0.0 **** 0.0
23447 H 48.761 18.773 73.472 H 0.0 **** 0.0
23448 H 48.568 20.009 74.739 H 0.0 **** 0.0
23449 H 49.641 20.315 73.352 H 0.0 **** 0.0
23450 H 50.103 19.12 74.588 H 0.0 **** 0.0
23451 C 69.422 43.762 83.562 C 0.0 **** 0.0
23452 H 69.072 43.487 82.567 H 0.0 **** 0.0
23453 H 69.014 44.735 83.835 H 0.0 **** 0.0
23454 H 70.511 43.811 83.563 H 0.0 **** 0.0
23455 H 69.092 43.014 84.283 H 0.0 **** 0.0
23456 C 79.369 21.339 60.563 C 0.0 **** 0.0
23457 H 80.195 21.88 60.101 H 0.0 **** 0.0
23458 H 79.04 21.872 61.455 H 0.0 **** 0.0
23459 H 79.701 20.338 60.84 H 0.0 **** 0.0
23460 H 78.543 21.265 59.857 H 0.0 **** 0.0
23461 C 16.333 42.947 2.309 C 0.0 **** 0.0
23462 H 16.197 43.413 3.286 H 0.0 **** 0.0
23463 H 15.707 43.455 1.575 H 0.0 **** 0.0
23464 H 16.048 41.897 2.366 H 0.0 **** 0.0
23465 H 17.378 43.025 2.012 H 0.0 **** 0.0
23466 C 73.499 2.556 22.387 C 0.0 **** 0.0
23467 H 73.357 2.772 21.328 H 0.0 **** 0.0
23468 H 74.363 3.108 22.757 H 0.0 **** 0.0
23469 H 73.666 1.487 22.52 H 0.0 **** 0.0
23470 H 72.61 2.857 22.941 H 0.0 **** 0.0
23471 C 51.588 92.955 20.828 C 0.0 **** 0.0
23472 H 52.38 93.494 20.308 H 0.0 **** 0.0
23473 H 51.78 92.973 21.901 H 0.0 **** 0.0
23474 H 51.563 91.922 20.481 H 0.0 **** 0.0
23475 H 50.629 93.431 20.622 H 0.0 **** 0.0
23476 C 80.359 74.747 14.695 C 0.0 **** 0.0
23477 H 79.927 75.746 14.638 H 0.0 **** 0.0
23478 H 80.761 74.582 15.695 H 0.0 **** 0.0
23479 H 81.159 74.655 13.961 H 0.0 **** 0.0
23480 H 79.588 74.005 14.487 H 0.0 **** 0.0
23481 C 77.928 8.215 30.894 C 0.0 **** 0.0
23482 H 78.098 8.437 29.84 H 0.0 **** 0.0
23483 H 76.856 8.207 31.095 H 0.0 **** 0.0
23484 H 78.407 8.977 31.508 H 0.0 **** 0.0
23485 H 78.349 7.238 31.131 H 0.0 **** 0.0
23486 C 97.881 58.798 3.937 C 0.0 **** 0.0
23487 H 97.038 59.486 3.996 H 0.0 **** 0.0
23488 H 97.63 57.871 4.454 H 0.0 **** 0.0
23489 H 98.754 59.251 4.407 H 0.0 **** 0.0
23490 H 98.102 58.583 2.892 H 0.0 **** 0.0
23491 C 9.503 19.347 25.445 C 0.0 **** 0.0
23492 H 9.152 18.477 24.89 H 0.0 **** 0.0
23493 H 9.939 19.023 26.39 H 0.0 **** 0.0
23494 H 8.664 20.015 25.641 H 0.0 **** 0.0
23495 H 10.256 19.873 24.858 H 0.0 **** 0.0
23496 C 73.78 26.785 55.881 C 0.0 **** 0.0
23497 H 72.835 27.283 56.097 H 0.0 **** 0.0
23498 H 74.438 27.471 55.347 H 0.0 **** 0.0
23499 H 73.594 25.906 55.264 H 0.0 **** 0.0
23500 H 74.252 26.481 56.815 H 0.0 **** 0.0
23501 C 8.133 92.633 85.18 C 0.0 **** 0.0
23502 H 8.126 91.622 85.587 H 0.0 **** 0.0
23503 H 9.074 93.121 85.435 H 0.0 **** 0.0
23504 H 7.303 93.2 85.601 H 0.0 **** 0.0
23505 H 8.029 92.589 84.096 H 0.0 **** 0.0
23506 C 83.952 7.132 32.115 C 0.0 **** 0.0
23507 H 84.785 6.891 31.455 H 0.0 **** 0.0
23508 H 83.602 8.143 31.904 H 0.0 **** 0.0
23509 H 84.281 7.07 33.153 H 0.0 **** 0.0
23510 H 83.14 6.424 31.949 H 0.0 **** 0.0
23511 C 66.959 73.035 14.454 C 0.0 **** 0.0
23512 H 67.163 73.455 15.439 H 0.0 **** 0.0
23513 H 67.043 73.818 13.7 H 0.0 **** 0.0
23514 H 65.951 72.621 14.437 H 0.0 **** 0.0
23515 H 67.68 72.246 14.24 H 0.0 **** 0.0
23516 C 68.61 78.582 35.099 C 0.0 **** 0.0
23517 H 69.434 79.296 35.079 H 0.0 **** 0.0
23518 H 68.323 78.33 34.078 H 0.0 **** 0.0
23519 H 67.759 79.024 35.618 H 0.0 **** 0.0
23520 H 68.925 77.679 35.622 H 0.0 **** 0.0
23521 C 67.595 51.738 56.524 C 0.0 **** 0.0
23522 H 67.407 51.833 55.455 H 0.0 **** 0.0
23523 H 66.738 52.12 57.079 H 0.0 **** 0.0
23524 H 68.484 52.31 56.788 H 0.0 **** 0.0
23525 H 67.751 50.688 56.773 H 0.0 **** 0.0
23526 C 91.109 98.205 11.11 C 0.0 **** 0.0
23527 H 90.876 99.0 11.819 H 0.0 **** 0.0
23528 H 90.253 98.041 10.455 H 0.0 **** 0.0
23529 H 91.332 97.287 11.654 H 0.0 **** 0.0
23530 H 91.974 98.493 10.513 H 0.0 **** 0.0
23531 C 96.447 65.72 50.247 C 0.0 **** 0.0
23532 H 96.626 65.638 49.175 H 0.0 **** 0.0
23533 H 96.706 66.724 50.582 H 0.0 **** 0.0
23534 H 97.061 64.99 50.774 H 0.0 **** 0.0
23535 H 95.395 65.527 50.454 H 0.0 **** 0.0
23536 C 13.745 91.747 44.892 C 0.0 **** 0.0
23537 H 13.998 92.161 43.915 H 0.0 **** 0.0
23538 H 14.66 91.561 45.454 H 0.0 **** 0.0
23539 H 13.202 90.812 44.759 H 0.0 **** 0.0
23540 H 13.121 92.456 45.436 H 0.0 **** 0.0
23541 C 16.465 68.329 21.701 C 0.0 **** 0.0
23542 H 16.364 67.691 22.579 H 0.0 **** 0.0
23543 H 16.055 69.316 21.92 H 0.0 **** 0.0
23544 H 15.921 67.887 20.866 H 0.0 **** 0.0
23545 H 17.519 68.423 21.439 H 0.0 **** 0.0
23546 C 14.203 57.983 15.923 C 0.0 **** 0.0
23547 H 14.267 58.842 16.59 H 0.0 **** 0.0
23548 H 15.117 57.913 15.332 H 0.0 **** 0.0
23549 H 13.348 58.104 15.257 H 0.0 **** 0.0
23550 H 14.08 57.074 16.512 H 0.0 **** 0.0
23551 C 94.212 87.28 98.099 C 0.0 **** 0.0
23552 H 93.211 87.055 98.467 H 0.0 **** 0.0
23553 H 94.5 88.281 98.419 H 0.0 **** 0.0
23554 H 94.218 87.229 97.01 H 0.0 **** 0.0
23555 H 94.918 86.552 98.5 H 0.0 **** 0.0
23556 C 58.186 25.658 27.915 C 0.0 **** 0.0
23557 H 58.012 25.516 26.848 H 0.0 **** 0.0
23558 H 59.255 25.779 28.095 H 0.0 **** 0.0
23559 H 57.82 24.789 28.461 H 0.0 **** 0.0
23560 H 57.657 26.55 28.253 H 0.0 **** 0.0
23561 C 55.453 63.473 34.582 C 0.0 **** 0.0
23562 H 55.61 63.777 35.617 H 0.0 **** 0.0
23563 H 56.418 63.298 34.105 H 0.0 **** 0.0
23564 H 54.922 64.262 34.049 H 0.0 **** 0.0
23565 H 54.864 62.557 34.557 H 0.0 **** 0.0
23566 C 9.217 87.559 36.008 C 0.0 **** 0.0
23567 H 8.917 86.533 36.22 H 0.0 **** 0.0
23568 H 9.773 87.588 35.07 H 0.0 **** 0.0
23569 H 9.848 87.928 36.816 H 0.0 **** 0.0
23570 H 8.33 88.187 35.924 H 0.0 **** 0.0
23571 C 92.19 19.928 17.972 C 0.0 **** 0.0
23572 H 92.838 20.76 18.249 H 0.0 **** 0.0
23573 H 91.159 20.278 17.909 H 0.0 **** 0.0
23574 H 92.262 19.145 18.726 H 0.0 **** 0.0
23575 H 92.5 19.532 17.006 H 0.0 **** 0.0
23576 C 96.855 68.289 6.876 C 0.0 **** 0.0
23577 H 96.473 68.418 7.889 H 0.0 **** 0.0
23578 H 97.196 69.251 6.491 H 0.0 **** 0.0
23579 H 96.063 67.901 6.236 H 0.0 **** 0.0
23580 H 97.689 67.587 6.889 H 0.0 **** 0.0
23581 C 46.18 9.997 37.96 C 0.0 **** 0.0
23582 H 46.134 9.046 38.491 H 0.0 **** 0.0
23583 H 47.145 10.47 38.144 H 0.0 **** 0.0
23584 H 45.381 10.649 38.313 H 0.0 **** 0.0
23585 H 46.06 9.821 36.891 H 0.0 **** 0.0
23586 C 38.009 67.861 35.262 C 0.0 **** 0.0
23587 H 37.565 67.899 36.257 H 0.0 **** 0.0
23588 H 38.751 67.063 35.226 H 0.0 **** 0.0
23589 H 38.489 68.814 35.042 H 0.0 **** 0.0
23590 H 37.231 67.668 34.524 H 0.0 **** 0.0
23591 C 9.793 19.244 46.516 C 0.0 **** 0.0
23592 H 10.316 19.851 45.777 H 0.0 **** 0.0
23593 H 10.51 18.607 47.035 H 0.0 **** 0.0
23594 H 9.05 18.623 46.016 H 0.0 **** 0.0
23595 H 9.298 19.896 47.236 H 0.0 **** 0.0
23596 C 10.906 23.432 23.272 C 0.0 **** 0.0
23597 H 10.427 23.84 22.381 H 0.0 **** 0.0
23598 H 10.783 22.349 23.286 H 0.0 **** 0.0
23599 H 10.444 23.862 24.161 H 0.0 **** 0.0
23600 H 11.967 23.679 23.259 H 0.0 **** 0.0
23601 C 49.562 43.084 47.501 C 0.0 **** 0.0
23602 H 49.137 43.598 48.363 H 0.0 **** 0.0
23603 H 49.605 42.013 47.701 H 0.0 **** 0.0
23604 H 50.569 43.459 47.315 H 0.0 **** 0.0
23605 H 48.939 43.266 46.625 H 0.0 **** 0.0
23606 C 57.669 69.992 65.888 C 0.0 **** 0.0
23607 H 56.66 70.331 66.123 H 0.0 **** 0.0
23608 H 58.203 70.783 65.36 H 0.0 **** 0.0
23609 H 57.616 69.105 65.256 H 0.0 **** 0.0
23610 H 58.195 69.75 66.811 H 0.0 **** 0.0
23611 C 62.18 50.813 80.318 C 0.0 **** 0.0
23612 H 62.389 51.044 79.274 H 0.0 **** 0.0
23613 H 61.152 51.09 80.553 H 0.0 **** 0.0
23614 H 62.862 51.374 80.958 H 0.0 **** 0.0
23615 H 62.317 49.745 80.488 H 0.0 **** 0.0
23616 C 44.762 18.04 36.063 C 0.0 **** 0.0
23617 H 44.943 17.013 35.748 H 0.0 **** 0.0
23618 H 45.699 18.596 36.046 H 0.0 **** 0.0
23619 H 44.355 18.044 37.074 H 0.0 **** 0.0
23620 H 44.049 18.507 35.383 H 0.0 **** 0.0
23621 C 6.967 39.643 82.399 C 0.0 **** 0.0
23622 H 7.777 39.366 81.723 H 0.0 **** 0.0
23623 H 6.01 39.48 81.903 H 0.0 **** 0.0
23624 H 7.063 40.694 82.669 H 0.0 **** 0.0
23625 H 7.02 39.029 83.298 H 0.0 **** 0.0
23626 C 1.416 93.911 26.964 C 0.0 **** 0.0
23627 H 2.322 93.628 27.501 H 0.0 **** 0.0
23628 H 0.783 93.034 26.832 H 0.0 **** 0.0
23629 H 1.684 94.316 25.988 H 0.0 **** 0.0
23630 H 0.877 94.667 27.535 H 0.0 **** 0.0
23631 C 42.227 56.307 13.382 C 0.0 **** 0.0
23632 H 41.214 56.483 13.744 H 0.0 **** 0.0
23633 H 42.364 55.242 13.19 H 0.0 **** 0.0
23634 H 42.944 56.637 14.133 H 0.0 **** 0.0
23635 H 42.384 56.865 12.459 H 0.0 **** 0.0
23636 C 39.884 40.972 63.342 C 0.0 **** 0.0
23637 H 39.762 40.227 64.128 H 0.0 **** 0.0
23638 H 39.477 41.925 63.68 H 0.0 **** 0.0
23639 H 39.352 40.646 62.448 H 0.0 **** 0.0
23640 H 40.943 41.089 63.113 H 0.0 **** 0.0
23641 C 13.391 42.658 81.567 C 0.0 **** 0.0
23642 H 12.808 43.04 80.729 H 0.0 **** 0.0
23643 H 12.718 42.308 82.349 H 0.0 **** 0.0
23644 H 14.024 43.453 81.961 H 0.0 **** 0.0
23645 H 14.016 41.832 81.228 H 0.0 **** 0.0
23646 C 47.437 80.236 43.758 C 0.0 **** 0.0
23647 H 47.4 80.213 44.847 H 0.0 **** 0.0
23648 H 47.655 81.251 43.424 H 0.0 **** 0.0
23649 H 46.476 79.919 43.355 H 0.0 **** 0.0
23650 H 48.219 79.562 43.407 H 0.0 **** 0.0
23651 C 49.035 42.905 34.889 C 0.0 **** 0.0
23652 H 49.587 42.778 33.958 H 0.0 **** 0.0
23653 H 49.528 42.341 35.682 H 0.0 **** 0.0
23654 H 48.017 42.538 34.761 H 0.0 **** 0.0
23655 H 49.01 43.961 35.155 H 0.0 **** 0.0
23656 C 32.36 28.974 18.209 C 0.0 **** 0.0
23657 H 31.418 29.511 18.322 H 0.0 **** 0.0
23658 H 32.182 27.904 18.316 H 0.0 **** 0.0
23659 H 33.061 29.306 18.974 H 0.0 **** 0.0
23660 H 32.776 29.177 17.222 H 0.0 **** 0.0
23661 C 28.793 64.342 11.932 C 0.0 **** 0.0
23662 H 28.605 64.701 10.921 H 0.0 **** 0.0
23663 H 29.838 64.044 12.023 H 0.0 **** 0.0
23664 H 28.151 63.486 12.139 H 0.0 **** 0.0
23665 H 28.578 65.138 12.646 H 0.0 **** 0.0
23666 C 47.645 28.455 73.561 C 0.0 **** 0.0
23667 H 48.542 29.023 73.804 H 0.0 **** 0.0
23668 H 47.897 27.398 73.469 H 0.0 **** 0.0
23669 H 47.232 28.813 72.618 H 0.0 **** 0.0
23670 H 46.907 28.585 74.353 H 0.0 **** 0.0
23671 C 57.239 38.417 48.426 C 0.0 **** 0.0
23672 H 57.188 38.062 47.396 H 0.0 **** 0.0
23673 H 58.206 38.152 48.854 H 0.0 **** 0.0
23674 H 56.443 37.953 49.009 H 0.0 **** 0.0
23675 H 57.118 39.5 48.443 H 0.0 **** 0.0
23676 C 72.699 7.745 93.912 C 0.0 **** 0.0
23677 H 73.379 7.998 93.099 H 0.0 **** 0.0
23678 H 72.907 6.732 94.257 H 0.0 **** 0.0
23679 H 71.67 7.804 93.557 H 0.0 **** 0.0
23680 H 72.841 8.446 94.735 H 0.0 **** 0.0
23681 C 55.009 81.936 38.664 C 0.0 **** 0.0
23682 H 53.924 81.831 38.694 H 0.0 **** 0.0
23683 H 55.302 82.829 39.216 H 0.0 **** 0.0
23684 H 55.336 82.024 37.628 H 0.0 **** 0.0
23685 H 55.471 81.059 39.118 H 0.0 **** 0.0
23686 C 64.981 47.895 67.677 C 0.0 **** 0.0
23687 H 64.259 47.817 68.49 H 0.0 **** 0.0
23688 H 65.9 47.381 67.958 H 0.0 **** 0.0
23689 H 65.196 48.946 67.483 H 0.0 **** 0.0
23690 H 64.567 47.437 66.779 H 0.0 **** 0.0
23691 C 84.936 83.701 66.506 C 0.0 **** 0.0
23692 H 84.796 84.162 67.484 H 0.0 **** 0.0
23693 H 84.66 84.411 65.727 H 0.0 **** 0.0
23694 H 84.307 82.814 66.43 H 0.0 **** 0.0
23695 H 85.981 83.416 66.385 H 0.0 **** 0.0
23696 C 51.393 91.639 24.634 C 0.0 **** 0.0
23697 H 50.944 91.728 25.624 H 0.0 **** 0.0
23698 H 51.325 90.605 24.297 H 0.0 **** 0.0
23699 H 52.44 91.938 24.683 H 0.0 **** 0.0
23700 H 50.863 92.286 23.935 H 0.0 **** 0.0
23701 C 56.102 10.589 85.478 C 0.0 **** 0.0
23702 H 55.939 10.53 84.402 H 0.0 **** 0.0
23703 H 56.054 9.588 85.908 H 0.0 **** 0.0
23704 H 55.331 11.215 85.928 H 0.0 **** 0.0
23705 H 57.083 11.022 85.674 H 0.0 **** 0.0
23706 C 37.49 95.692 41.339 C 0.0 **** 0.0
23707 H 37.53 96.145 40.348 H 0.0 **** 0.0
23708 H 38.445 95.213 41.557 H 0.0 **** 0.0
23709 H 36.695 94.948 41.366 H 0.0 **** 0.0
23710 H 37.292 96.464 42.083 H 0.0 **** 0.0
23711 C 34.415 7.173 6.563 C 0.0 **** 0.0
23712 H 34.23 6.663 7.509 H 0.0 **** 0.0
23713 H 34.757 6.451 5.822 H 0.0 **** 0.0
23714 H 35.181 7.936 6.707 H 0.0 **** 0.0
23715 H 33.495 7.643 6.217 H 0.0 **** 0.0
23716 C 13.221 91.012 38.65 C 0.0 **** 0.0
23717 H 13.661 91.216 37.674 H 0.0 **** 0.0
23718 H 13.113 91.946 39.202 H 0.0 **** 0.0
23719 H 13.869 90.334 39.206 H 0.0 **** 0.0
23720 H 12.242 90.552 38.518 H 0.0 **** 0.0
23721 C 6.938 77.693 11.442 C 0.0 **** 0.0
23722 H 7.064 76.831 10.787 H 0.0 **** 0.0
23723 H 7.765 78.388 11.29 H 0.0 **** 0.0
23724 H 6.927 77.362 12.48 H 0.0 **** 0.0
23725 H 5.997 78.192 11.209 H 0.0 **** 0.0
23726 C 27.507 36.017 67.683 C 0.0 **** 0.0
23727 H 27.73 36.169 66.627 H 0.0 **** 0.0
23728 H 28.402 35.668 68.197 H 0.0 **** 0.0
23729 H 26.717 35.273 67.783 H 0.0 **** 0.0
23730 H 27.178 36.958 68.123 H 0.0 **** 0.0
23731 C 31.789 83.701 41.776 C 0.0 **** 0.0
23732 H 32.228 84.542 41.239 H 0.0 **** 0.0
23733 H 31.62 83.982 42.816 H 0.0 **** 0.0
23734 H 32.468 82.849 41.735 H 0.0 **** 0.0
23735 H 30.839 83.431 41.314 H 0.0 **** 0.0
23736 C 44.015 48.747 80.327 C 0.0 **** 0.0
23737 H 44.982 48.418 79.946 H 0.0 **** 0.0
23738 H 43.219 48.236 79.784 H 0.0 **** 0.0
23739 H 43.917 49.823 80.188 H 0.0 **** 0.0
23740 H 43.943 48.509 81.388 H 0.0 **** 0.0
23741 C 27.303 11.351 83.326 C 0.0 **** 0.0
23742 H 27.505 10.281 83.373 H 0.0 **** 0.0
23743 H 27.556 11.811 84.282 H 0.0 **** 0.0
23744 H 26.246 11.512 83.114 H 0.0 **** 0.0
23745 H 27.905 11.8 82.536 H 0.0 **** 0.0
23746 C 75.948 97.19 26.235 C 0.0 **** 0.0
23747 H 76.333 96.709 27.134 H 0.0 **** 0.0
23748 H 75.376 98.076 26.514 H 0.0 **** 0.0
23749 H 75.303 96.495 25.698 H 0.0 **** 0.0
23750 H 76.781 97.482 25.595 H 0.0 **** 0.0
23751 C 36.224 66.724 65.431 C 0.0 **** 0.0
23752 H 35.771 67.513 64.83 H 0.0 **** 0.0
23753 H 35.939 66.853 66.475 H 0.0 **** 0.0
23754 H 37.309 66.777 65.34 H 0.0 **** 0.0
23755 H 35.877 65.753 65.076 H 0.0 **** 0.0
23756 C 93.73 29.47 40.416 C 0.0 **** 0.0
23757 H 94.82 29.478 40.446 H 0.0 **** 0.0
23758 H 93.34 29.368 41.429 H 0.0 **** 0.0
23759 H 93.39 28.631 39.809 H 0.0 **** 0.0
23760 H 93.372 30.403 39.98 H 0.0 **** 0.0
23761 C 84.326 53.324 84.326 C 0.0 **** 0.0
23762 H 85.287 52.811 84.317 H 0.0 **** 0.0
23763 H 83.717 52.968 83.495 H 0.0 **** 0.0
23764 H 84.486 54.398 84.226 H 0.0 **** 0.0
23765 H 83.814 53.119 85.266 H 0.0 **** 0.0
23766 C 96.083 48.333 56.71 C 0.0 **** 0.0
23767 H 96.556 48.463 57.683 H 0.0 **** 0.0
23768 H 96.314 47.339 56.324 H 0.0 **** 0.0
23769 H 96.459 49.088 56.019 H 0.0 **** 0.0
23770 H 95.003 48.44 56.814 H 0.0 **** 0.0
23771 C 80.166 24.375 30.167 C 0.0 **** 0.0
23772 H 80.331 24.815 31.151 H 0.0 **** 0.0
23773 H 79.171 23.932 30.129 H 0.0 **** 0.0
23774 H 80.914 23.603 29.986 H 0.0 **** 0.0
23775 H 80.25 25.149 29.405 H 0.0 **** 0.0
23776 C 58.271 90.116 92.204 C 0.0 **** 0.0
23777 H 58.868 90.34 93.088 H 0.0 **** 0.0
23778 H 57.365 89.588 92.502 H 0.0 **** 0.0
23779 H 58.85 89.491 91.524 H 0.0 **** 0.0
23780 H 58.002 91.046 91.702 H 0.0 **** 0.0
23781 C 7.985 51.051 52.638 C 0.0 **** 0.0
23782 H 7.879 50.075 53.113 H 0.0 **** 0.0
23783 H 7.575 51.01 51.629 H 0.0 **** 0.0
23784 H 9.041 51.318 52.591 H 0.0 **** 0.0
23785 H 7.446 51.798 53.22 H 0.0 **** 0.0
23786 C 23.843 16.982 54.946 C 0.0 **** 0.0
23787 H 24.047 16.864 56.01 H 0.0 **** 0.0
23788 H 24.03 18.016 54.654 H 0.0 **** 0.0
23789 H 22.802 16.73 54.747 H 0.0 **** 0.0
23790 H 24.493 16.319 54.376 H 0.0 **** 0.0
23791 C 78.733 80.885 2.048 C 0.0 **** 0.0
23792 H 78.31 80.511 1.115 H 0.0 **** 0.0
23793 H 77.969 81.433 2.599 H 0.0 **** 0.0
23794 H 79.569 81.549 1.826 H 0.0 **** 0.0
23795 H 79.085 80.047 2.648 H 0.0 **** 0.0
23796 C 15.431 29.605 33.977 C 0.0 **** 0.0
23797 H 15.997 28.673 34.0 H 0.0 **** 0.0
23798 H 14.778 29.654 34.849 H 0.0 **** 0.0
23799 H 14.83 29.642 33.069 H 0.0 **** 0.0
23800 H 16.121 30.448 33.991 H 0.0 **** 0.0
23801 C 39.499 77.714 11.253 C 0.0 **** 0.0
23802 H 39.943 78.54 10.699 H 0.0 **** 0.0
23803 H 38.769 78.104 11.963 H 0.0 **** 0.0
23804 H 40.279 77.176 11.792 H 0.0 **** 0.0
23805 H 39.004 77.035 10.559 H 0.0 **** 0.0
23806 C 44.469 31.307 11.763 C 0.0 **** 0.0
23807 H 44.058 30.591 12.475 H 0.0 **** 0.0
23808 H 44.874 32.164 12.303 H 0.0 **** 0.0
23809 H 43.681 31.642 11.089 H 0.0 **** 0.0
23810 H 45.263 30.832 11.187 H 0.0 **** 0.0
23811 C 22.049 27.933 24.159 C 0.0 **** 0.0
23812 H 21.753 27.277 23.341 H 0.0 **** 0.0
23813 H 21.86 27.435 25.11 H 0.0 **** 0.0
23814 H 21.473 28.857 24.111 H 0.0 **** 0.0
23815 H 23.111 28.163 24.074 H 0.0 **** 0.0
23816 C 78.368 91.55 57.558 C 0.0 **** 0.0
23817 H 79.118 90.987 58.113 H 0.0 **** 0.0
23818 H 78.863 92.229 56.864 H 0.0 **** 0.0
23819 H 77.757 92.124 58.255 H 0.0 **** 0.0
23820 H 77.733 90.86 57.002 H 0.0 **** 0.0
23821 C 78.889 93.784 28.368 C 0.0 **** 0.0
23822 H 78.842 93.691 29.453 H 0.0 **** 0.0
23823 H 79.93 93.765 28.047 H 0.0 **** 0.0
23824 H 78.432 94.727 28.065 H 0.0 **** 0.0
23825 H 78.35 92.956 27.909 H 0.0 **** 0.0
23826 C 57.253 10.404 62.849 C 0.0 **** 0.0
23827 H 56.371 9.773 62.964 H 0.0 **** 0.0
23828 H 58.137 9.855 63.175 H 0.0 **** 0.0
23829 H 57.139 11.302 63.455 H 0.0 **** 0.0
23830 H 57.365 10.683 61.801 H 0.0 **** 0.0
23831 C 31.413 91.957 52.162 C 0.0 **** 0.0
23832 H 30.458 91.49 51.919 H 0.0 **** 0.0
23833 H 32.218 91.416 51.664 H 0.0 **** 0.0
23834 H 31.567 91.928 53.24 H 0.0 **** 0.0
23835 H 31.406 92.993 51.823 H 0.0 **** 0.0
23836 C 4.682 48.519 94.494 C 0.0 **** 0.0
23837 H 4.54 48.144 95.508 H 0.0 **** 0.0
23838 H 3.8 48.287 93.896 H 0.0 **** 0.0
23839 H 5.557 48.045 94.051 H 0.0 **** 0.0
23840 H 4.828 49.598 94.524 H 0.0 **** 0.0
23841 C 7.76 42.497 62.888 C 0.0 **** 0.0
23842 H 8.384 42.249 63.746 H 0.0 **** 0.0
23843 H 8.348 43.055 62.159 H 0.0 **** 0.0
23844 H 6.917 43.105 63.216 H 0.0 **** 0.0
23845 H 7.39 41.58 62.43 H 0.0 **** 0.0
23846 C 13.311 67.603 61.148 C 0.0 **** 0.0
23847 H 13.324 67.653 60.059 H 0.0 **** 0.0
23848 H 13.927 66.768 61.48 H 0.0 **** 0.0
23849 H 12.287 67.46 61.492 H 0.0 **** 0.0
23850 H 13.705 68.533 61.558 H 0.0 **** 0.0
23851 C 22.978 73.596 88.531 C 0.0 **** 0.0
23852 H 23.143 72.735 89.179 H 0.0 **** 0.0
23853 H 23.243 74.508 89.065 H 0.0 **** 0.0
23854 H 21.928 73.636 88.241 H 0.0 **** 0.0
23855 H 23.598 73.503 87.639 H 0.0 **** 0.0
23856 C 26.408 89.647 58.061 C 0.0 **** 0.0
23857 H 26.724 90.188 58.953 H 0.0 **** 0.0
23858 H 26.497 90.298 57.192 H 0.0 **** 0.0
23859 H 25.371 89.332 58.176 H 0.0 **** 0.0
23860 H 27.042 88.77 57.926 H 0.0 **** 0.0
23861 C 9.541 8.816 21.57 C 0.0 **** 0.0
23862 H 8.945 9.07 22.447 H 0.0 **** 0.0
23863 H 10.15 7.938 21.787 H 0.0 **** 0.0
23864 H 10.189 9.655 21.317 H 0.0 **** 0.0
23865 H 8.879 8.602 20.731 H 0.0 **** 0.0
23866 C 39.069 24.066 14.97 C 0.0 **** 0.0
23867 H 38.058 23.973 14.575 H 0.0 **** 0.0
23868 H 39.704 23.298 14.527 H 0.0 **** 0.0
23869 H 39.049 23.941 16.053 H 0.0 **** 0.0
23870 H 39.465 25.051 14.726 H 0.0 **** 0.0
23871 C 76.371 77.559 42.808 C 0.0 **** 0.0
23872 H 76.327 76.802 42.026 H 0.0 **** 0.0
23873 H 77.412 77.768 43.054 H 0.0 **** 0.0
23874 H 75.854 77.195 43.695 H 0.0 **** 0.0
23875 H 75.89 78.472 42.456 H 0.0 **** 0.0
23876 C 74.334 27.872 80.315 C 0.0 **** 0.0
23877 H 75.39 28.14 80.342 H 0.0 **** 0.0
23878 H 74.086 27.283 81.199 H 0.0 **** 0.0
23879 H 74.131 27.287 79.419 H 0.0 **** 0.0
23880 H 73.729 28.78 80.302 H 0.0 **** 0.0
23881 C 4.02 11.84 85.906 C 0.0 **** 0.0
23882 H 4.751 12.617 86.127 H 0.0 **** 0.0
23883 H 4.349 11.268 85.039 H 0.0 **** 0.0
23884 H 3.055 12.3 85.693 H 0.0 **** 0.0
23885 H 3.924 11.177 86.765 H 0.0 **** 0.0
23886 C 36.603 53.492 6.336 C 0.0 **** 0.0
23887 H 36.618 53.4 7.422 H 0.0 **** 0.0
23888 H 35.57 53.548 5.99 H 0.0 **** 0.0
23889 H 37.089 52.624 5.891 H 0.0 **** 0.0
23890 H 37.134 54.397 6.041 H 0.0 **** 0.0
23891 C 41.808 55.1 22.077 C 0.0 **** 0.0
23892 H 41.668 55.305 21.016 H 0.0 **** 0.0
23893 H 42.782 54.634 22.231 H 0.0 **** 0.0
23894 H 41.024 54.426 22.423 H 0.0 **** 0.0
23895 H 41.759 56.034 22.637 H 0.0 **** 0.0
23896 C 5.429 49.168 27.728 C 0.0 **** 0.0
23897 H 4.374 48.94 27.58 H 0.0 **** 0.0
23898 H 5.55 49.747 28.644 H 0.0 **** 0.0
23899 H 5.798 49.746 26.881 H 0.0 **** 0.0
23900 H 5.993 48.239 27.807 H 0.0 **** 0.0
23901 C 33.924 74.178 88.414 C 0.0 **** 0.0
23902 H 33.875 74.596 87.408 H 0.0 **** 0.0
23903 H 33.486 74.882 89.121 H 0.0 **** 0.0
23904 H 34.965 73.995 88.68 H 0.0 **** 0.0
23905 H 33.371 73.24 88.445 H 0.0 **** 0.0
23906 C 41.757 0.834 25.283 C 0.0 **** 0.0
23907 H 41.798 1.343 26.246 H 0.0 **** 0.0
23908 H 40.748 0.46 25.113 H 0.0 **** 0.0
23909 H 42.459 0.0 25.284 H 0.0 **** 0.0
23910 H 42.025 1.534 24.491 H 0.0 **** 0.0
23911 C 70.983 79.306 69.692 C 0.0 **** 0.0
23912 H 71.082 80.382 69.842 H 0.0 **** 0.0
23913 H 71.768 78.79 70.244 H 0.0 **** 0.0
23914 H 71.073 79.078 68.631 H 0.0 **** 0.0
23915 H 70.008 78.978 70.053 H 0.0 **** 0.0
23916 C 43.408 21.149 36.183 C 0.0 **** 0.0
23917 H 42.766 21.869 36.691 H 0.0 **** 0.0
23918 H 43.592 20.299 36.84 H 0.0 **** 0.0
23919 H 44.356 21.624 35.929 H 0.0 **** 0.0
23920 H 42.918 20.805 35.272 H 0.0 **** 0.0
23921 C 29.22 36.874 1.295 C 0.0 **** 0.0
23922 H 29.206 37.943 1.079 H 0.0 **** 0.0
23923 H 30.176 36.608 1.747 H 0.0 **** 0.0
23924 H 29.088 36.315 0.369 H 0.0 **** 0.0
23925 H 28.412 36.632 1.985 H 0.0 **** 0.0
23926 C 36.28 95.283 24.272 C 0.0 **** 0.0
23927 H 36.339 95.244 25.36 H 0.0 **** 0.0
23928 H 35.419 95.883 23.976 H 0.0 **** 0.0
23929 H 36.171 94.272 23.879 H 0.0 **** 0.0
23930 H 37.19 95.732 23.875 H 0.0 **** 0.0
23931 C 0.59 70.31 88.582 C 0.0 **** 0.0
23932 H 0.871 69.31 88.913 H 0.0 **** 0.0
23933 H 0.001 70.237 87.667 H 0.0 **** 0.0
23934 H 1.49 70.894 88.389 H 0.0 **** 0.0
23935 H 0.0 70.797 89.358 H 0.0 **** 0.0
23936 C 32.153 4.322 96.356 C 0.0 **** 0.0
23937 H 31.637 4.529 95.419 H 0.0 **** 0.0
23938 H 32.079 3.259 96.584 H 0.0 **** 0.0
23939 H 31.693 4.899 97.159 H 0.0 **** 0.0
23940 H 33.203 4.602 96.263 H 0.0 **** 0.0
23941 C 63.396 79.661 53.671 C 0.0 **** 0.0
23942 H 64.235 79.573 54.361 H 0.0 **** 0.0
23943 H 63.643 79.164 52.733 H 0.0 **** 0.0
23944 H 63.192 80.715 53.482 H 0.0 **** 0.0
23945 H 62.514 79.193 54.11 H 0.0 **** 0.0
23946 C 37.871 25.84 42.137 C 0.0 **** 0.0
23947 H 36.936 25.325 41.913 H 0.0 **** 0.0
23948 H 37.681 26.64 42.853 H 0.0 **** 0.0
23949 H 38.281 26.262 41.22 H 0.0 **** 0.0
23950 H 38.582 25.133 42.562 H 0.0 **** 0.0
23951 C 67.732 17.364 45.096 C 0.0 **** 0.0
23952 H 68.222 17.658 44.168 H 0.0 **** 0.0
23953 H 67.421 18.256 45.64 H 0.0 **** 0.0
23954 H 68.428 16.789 45.708 H 0.0 **** 0.0
23955 H 66.859 16.753 44.868 H 0.0 **** 0.0
23956 C 60.738 83.128 4.179 C 0.0 **** 0.0
23957 H 60.641 82.821 3.137 H 0.0 **** 0.0
23958 H 61.543 83.858 4.269 H 0.0 **** 0.0
23959 H 60.965 82.258 4.794 H 0.0 **** 0.0
23960 H 59.802 83.575 4.513 H 0.0 **** 0.0
23961 C 79.101 32.561 95.101 C 0.0 **** 0.0
23962 H 78.734 31.537 95.041 H 0.0 **** 0.0
23963 H 80.126 32.558 95.471 H 0.0 **** 0.0
23964 H 78.47 33.133 95.782 H 0.0 **** 0.0
23965 H 79.073 33.016 94.111 H 0.0 **** 0.0
23966 C 8.715 85.162 64.839 C 0.0 **** 0.0
23967 H 7.835 84.576 65.103 H 0.0 **** 0.0
23968 H 9.467 85.06 65.622 H 0.0 **** 0.0
23969 H 8.437 86.211 64.736 H 0.0 **** 0.0
23970 H 9.122 84.8 63.895 H 0.0 **** 0.0
23971 C 20.679 22.264 59.028 C 0.0 **** 0.0
23972 H 20.856 22.0 57.985 H 0.0 **** 0.0
23973 H 20.961 21.427 59.667 H 0.0 **** 0.0
23974 H 19.623 22.491 59.171 H 0.0 **** 0.0
23975 H 21.277 23.138 59.287 H 0.0 **** 0.0
23976 C 59.212 74.093 53.393 C 0.0 **** 0.0
23977 H 59.331 73.997 52.314 H 0.0 **** 0.0
23978 H 60.184 74.278 53.851 H 0.0 **** 0.0
23979 H 58.79 73.172 53.796 H 0.0 **** 0.0
23980 H 58.542 74.925 53.612 H 0.0 **** 0.0
23981 C 54.4 26.173 39.741 C 0.0 **** 0.0
23982 H 53.535 26.18 40.405 H 0.0 **** 0.0
23983 H 54.096 25.832 38.751 H 0.0 **** 0.0
23984 H 55.159 25.501 40.141 H 0.0 **** 0.0
23985 H 54.809 27.181 39.669 H 0.0 **** 0.0
23986 C 72.535 58.837 82.774 C 0.0 **** 0.0
23987 H 73.339 58.106 82.687 H 0.0 **** 0.0
23988 H 72.311 59.008 83.827 H 0.0 **** 0.0
23989 H 71.645 58.46 82.27 H 0.0 **** 0.0
23990 H 72.845 59.774 82.312 H 0.0 **** 0.0
23991 C 23.47 40.116 62.064 C 0.0 **** 0.0
23992 H 23.005 40.535 62.957 H 0.0 **** 0.0
23993 H 22.736 40.072 61.259 H 0.0 **** 0.0
23994 H 23.832 39.111 62.281 H 0.0 **** 0.0
23995 H 24.306 40.746 61.761 H 0.0 **** 0.0
23996 C 25.338 28.834 51.259 C 0.0 **** 0.0
23997 H 25.772 29.148 50.309 H 0.0 **** 0.0
23998 H 25.844 27.935 51.609 H 0.0 **** 0.0
23999 H 24.277 28.625 51.122 H 0.0 **** 0.0
24000 H 25.46 29.63 51.993 H 0.0 **** 0.0
24001 C 86.521 92.798 54.193 C 0.0 **** 0.0
24002 H 86.037 92.766 53.217 H 0.0 **** 0.0
24003 H 87.516 93.23 54.091 H 0.0 **** 0.0
24004 H 86.603 91.786 54.591 H 0.0 **** 0.0
24005 H 85.927 93.409 54.873 H 0.0 **** 0.0
24006 C 59.932 47.852 94.261 C 0.0 **** 0.0
24007 H 60.742 47.621 93.568 H 0.0 **** 0.0
24008 H 59.617 46.94 94.767 H 0.0 **** 0.0
24009 H 59.091 48.272 93.709 H 0.0 **** 0.0
24010 H 60.281 48.576 94.998 H 0.0 **** 0.0
24011 C 72.761 29.071 69.218 C 0.0 **** 0.0
24012 H 73.598 28.69 68.634 H 0.0 **** 0.0
24013 H 72.813 28.67 70.231 H 0.0 **** 0.0
24014 H 71.824 28.764 68.753 H 0.0 **** 0.0
24015 H 72.809 30.159 69.255 H 0.0 **** 0.0
24016 C 28.225 24.643 2.448 C 0.0 **** 0.0
24017 H 28.229 24.653 1.358 H 0.0 **** 0.0
24018 H 29.118 24.132 2.809 H 0.0 **** 0.0
24019 H 27.338 24.121 2.804 H 0.0 **** 0.0
24020 H 28.217 25.668 2.82 H 0.0 **** 0.0
24021 C 78.063 3.421 29.547 C 0.0 **** 0.0
24022 H 78.715 4.132 29.039 H 0.0 **** 0.0
24023 H 78.665 2.616 29.971 H 0.0 **** 0.0
24024 H 77.353 3.006 28.832 H 0.0 **** 0.0
24025 H 77.522 3.929 30.344 H 0.0 **** 0.0
24026 C 22.513 1.048 86.605 C 0.0 **** 0.0
24027 H 22.233 0.003 86.477 H 0.0 **** 0.0
24028 H 23.151 1.357 85.777 H 0.0 **** 0.0
24029 H 23.054 1.167 87.544 H 0.0 **** 0.0
24030 H 21.615 1.665 86.622 H 0.0 **** 0.0
24031 C 3.331 64.191 70.773 C 0.0 **** 0.0
24032 H 3.602 64.934 70.023 H 0.0 **** 0.0
24033 H 2.576 63.52 70.364 H 0.0 **** 0.0
24034 H 2.931 64.695 71.654 H 0.0 **** 0.0
24035 H 4.215 63.618 71.053 H 0.0 **** 0.0
24036 C 15.389 89.98 85.523 C 0.0 **** 0.0
24037 H 15.483 88.905 85.681 H 0.0 **** 0.0
24038 H 15.567 90.209 84.472 H 0.0 **** 0.0
24039 H 16.122 90.502 86.138 H 0.0 **** 0.0
24040 H 14.386 90.301 85.802 H 0.0 **** 0.0
24041 C 6.316 1.564 28.453 C 0.0 **** 0.0
24042 H 6.928 1.946 27.636 H 0.0 **** 0.0
24043 H 6.941 0.988 29.136 H 0.0 **** 0.0
24044 H 5.532 0.923 28.049 H 0.0 **** 0.0
24045 H 5.864 2.398 28.989 H 0.0 **** 0.0
24046 C 15.034 1.56 39.304 C 0.0 **** 0.0
24047 H 14.662 1.857 40.284 H 0.0 **** 0.0
24048 H 16.065 1.216 39.396 H 0.0 **** 0.0
24049 H 14.995 2.412 38.626 H 0.0 **** 0.0
24050 H 14.415 0.753 38.91 H 0.0 **** 0.0
24051 C 91.094 80.5 36.277 C 0.0 **** 0.0
24052 H 90.599 80.415 37.244 H 0.0 **** 0.0
24053 H 91.365 79.506 35.92 H 0.0 **** 0.0
24054 H 91.993 81.107 36.381 H 0.0 **** 0.0
24055 H 90.418 80.971 35.563 H 0.0 **** 0.0
24056 C 52.578 97.582 88.813 C 0.0 **** 0.0
24057 H 53.273 97.657 87.977 H 0.0 **** 0.0
24058 H 51.999 96.662 88.722 H 0.0 **** 0.0
24059 H 51.904 98.439 88.802 H 0.0 **** 0.0
24060 H 53.135 97.57 89.749 H 0.0 **** 0.0
24061 C 19.545 97.691 65.483 C 0.0 **** 0.0
24062 H 19.744 98.383 66.302 H 0.0 **** 0.0
24063 H 19.166 96.752 65.886 H 0.0 **** 0.0
24064 H 20.467 97.506 64.932 H 0.0 **** 0.0
24065 H 18.802 98.126 64.814 H 0.0 **** 0.0
24066 C 10.401 71.304 16.737 C 0.0 **** 0.0
24067 H 9.664 71.736 16.06 H 0.0 **** 0.0
24068 H 10.12 70.278 16.974 H 0.0 **** 0.0
24069 H 10.44 71.892 17.654 H 0.0 **** 0.0
24070 H 11.381 71.312 16.259 H 0.0 **** 0.0
24071 C 0.878 52.862 47.237 C 0.0 **** 0.0
24072 H 0.864 53.457 46.324 H 0.0 **** 0.0
24073 H 0.971 53.523 48.099 H 0.0 **** 0.0
24074 H 1.725 52.177 47.211 H 0.0 **** 0.0
24075 H -0.048 52.293 47.313 H 0.0 **** 0.0
24076 C 87.969 0.957 58.783 C 0.0 **** 0.0
24077 H 87.529 1.207 59.748 H 0.0 **** 0.0
24078 H 88.606 0.078 58.891 H 0.0 **** 0.0
24079 H 88.566 1.797 58.427 H 0.0 **** 0.0
24080 H 87.176 0.745 58.066 H 0.0 **** 0.0
24081 C 18.317 75.2 53.492 C 0.0 **** 0.0
24082 H 18.637 75.163 52.45 H 0.0 **** 0.0
24083 H 18.932 74.522 54.085 H 0.0 **** 0.0
24084 H 17.272 74.898 53.561 H 0.0 **** 0.0
24085 H 18.427 76.216 53.87 H 0.0 **** 0.0
24086 C 69.125 47.963 35.835 C 0.0 **** 0.0
24087 H 69.34 48.281 36.856 H 0.0 **** 0.0
24088 H 69.442 46.928 35.703 H 0.0 **** 0.0
24089 H 69.664 48.6 35.135 H 0.0 **** 0.0
24090 H 68.054 48.042 35.648 H 0.0 **** 0.0
24091 C 25.281 17.884 1.985 C 0.0 **** 0.0
24092 H 25.133 17.937 3.063 H 0.0 **** 0.0
24093 H 25.52 16.859 1.701 H 0.0 **** 0.0
24094 H 26.103 18.541 1.699 H 0.0 **** 0.0
24095 H 24.37 18.2 1.477 H 0.0 **** 0.0
24096 C 11.025 85.715 53.005 C 0.0 **** 0.0
24097 H 10.731 85.16 52.113 H 0.0 **** 0.0
24098 H 10.974 86.785 52.8 H 0.0 **** 0.0
24099 H 12.044 85.445 53.28 H 0.0 **** 0.0
24100 H 10.349 85.469 53.824 H 0.0 **** 0.0
24101 C 85.145 34.977 24.084 C 0.0 **** 0.0
24102 H 84.683 34.682 25.026 H 0.0 **** 0.0
24103 H 84.428 35.544 23.49 H 0.0 **** 0.0
24104 H 85.45 34.087 23.534 H 0.0 **** 0.0
24105 H 86.019 35.597 24.286 H 0.0 **** 0.0
24106 C 69.588 28.899 88.508 C 0.0 **** 0.0
24107 H 69.493 29.05 89.583 H 0.0 **** 0.0
24108 H 69.183 29.764 87.982 H 0.0 **** 0.0
24109 H 69.037 28.005 88.216 H 0.0 **** 0.0
24110 H 70.641 28.777 88.25 H 0.0 **** 0.0
24111 C 4.74 27.411 41.586 C 0.0 **** 0.0
24112 H 4.479 27.486 42.642 H 0.0 **** 0.0
24113 H 4.03 26.756 41.082 H 0.0 **** 0.0
24114 H 5.745 27.001 41.489 H 0.0 **** 0.0
24115 H 4.706 28.402 41.133 H 0.0 **** 0.0
24116 C 81.839 17.737 96.153 C 0.0 **** 0.0
24117 H 82.074 17.697 97.216 H 0.0 **** 0.0
24118 H 82.035 16.764 95.701 H 0.0 **** 0.0
24119 H 82.459 18.493 95.672 H 0.0 **** 0.0
24120 H 80.787 17.993 96.023 H 0.0 **** 0.0
24121 C 91.005 47.469 36.779 C 0.0 **** 0.0
24122 H 91.046 47.492 37.868 H 0.0 **** 0.0
24123 H 91.195 46.454 36.43 H 0.0 **** 0.0
24124 H 91.76 48.141 36.372 H 0.0 **** 0.0
24125 H 90.017 47.789 36.447 H 0.0 **** 0.0
24126 C 48.145 45.217 63.264 C 0.0 **** 0.0
24127 H 48.167 45.07 62.184 H 0.0 **** 0.0
24128 H 48.714 46.11 63.521 H 0.0 **** 0.0
24129 H 48.585 44.351 63.757 H 0.0 **** 0.0
24130 H 47.112 45.337 63.593 H 0.0 **** 0.0
24131 C 66.921 31.311 51.937 C 0.0 **** 0.0
24132 H 66.159 31.355 51.159 H 0.0 **** 0.0
24133 H 67.747 31.972 51.674 H 0.0 **** 0.0
24134 H 67.287 30.289 52.029 H 0.0 **** 0.0
24135 H 66.488 31.629 52.886 H 0.0 **** 0.0
24136 C 77.669 63.368 90.106 C 0.0 **** 0.0
24137 H 78.276 63.903 90.837 H 0.0 **** 0.0
24138 H 78.179 62.449 89.814 H 0.0 **** 0.0
24139 H 77.52 63.996 89.228 H 0.0 **** 0.0
24140 H 76.703 63.123 90.546 H 0.0 **** 0.0
24141 C 2.078 31.197 6.212 C 0.0 **** 0.0
24142 H 2.151 31.111 7.296 H 0.0 **** 0.0
24143 H 2.94 30.717 5.75 H 0.0 **** 0.0
24144 H 2.055 32.251 5.933 H 0.0 **** 0.0
24145 H 1.164 30.711 5.87 H 0.0 **** 0.0
24146 C 29.391 73.995 13.584 C 0.0 **** 0.0
24147 H 29.912 74.812 13.085 H 0.0 **** 0.0
24148 H 29.076 74.318 14.577 H 0.0 **** 0.0
24149 H 30.059 73.139 13.675 H 0.0 **** 0.0
24150 H 28.515 73.712 13.0 H 0.0 **** 0.0
24151 C 92.21 2.392 18.735 C 0.0 **** 0.0
24152 H 91.469 3.134 19.032 H 0.0 **** 0.0
24153 H 92.225 2.308 17.648 H 0.0 **** 0.0
24154 H 91.952 1.427 19.171 H 0.0 **** 0.0
24155 H 93.194 2.699 19.09 H 0.0 **** 0.0
24156 C 61.191 49.489 64.847 C 0.0 **** 0.0
24157 H 61.578 49.876 65.789 H 0.0 **** 0.0
24158 H 61.432 48.429 64.763 H 0.0 **** 0.0
24159 H 61.644 50.032 64.018 H 0.0 **** 0.0
24160 H 60.109 49.619 64.818 H 0.0 **** 0.0
24161 C 89.644 79.215 33.611 C 0.0 **** 0.0
24162 H 89.15 79.069 34.571 H 0.0 **** 0.0
24163 H 89.194 80.064 33.096 H 0.0 **** 0.0
24164 H 89.53 78.318 33.003 H 0.0 **** 0.0
24165 H 90.704 79.41 33.774 H 0.0 **** 0.0
24166 C 34.49 16.591 82.397 C 0.0 **** 0.0
24167 H 34.443 16.864 81.343 H 0.0 **** 0.0
24168 H 33.862 17.268 82.977 H 0.0 **** 0.0
24169 H 35.52 16.662 82.746 H 0.0 **** 0.0
24170 H 34.134 15.568 82.523 H 0.0 **** 0.0
24171 C 28.348 87.246 27.243 C 0.0 **** 0.0
24172 H 27.734 86.575 27.844 H 0.0 **** 0.0
24173 H 28.202 87.023 26.186 H 0.0 **** 0.0
24174 H 29.398 87.107 27.503 H 0.0 **** 0.0
24175 H 28.058 88.277 27.441 H 0.0 **** 0.0
24176 C 77.037 30.64 29.943 C 0.0 **** 0.0
24177 H 77.589 30.914 29.044 H 0.0 **** 0.0
24178 H 76.003 30.972 29.85 H 0.0 **** 0.0
24179 H 77.495 31.115 30.81 H 0.0 **** 0.0
24180 H 77.061 29.557 30.067 H 0.0 **** 0.0
24181 C 61.509 92.53 43.603 C 0.0 **** 0.0
24182 H 61.754 92.436 44.661 H 0.0 **** 0.0
24183 H 61.649 91.568 43.11 H 0.0 **** 0.0
24184 H 62.162 93.272 43.144 H 0.0 **** 0.0
24185 H 60.471 92.845 43.497 H 0.0 **** 0.0
24186 C 42.745 86.231 42.713 C 0.0 **** 0.0
24187 H 42.75 86.227 43.803 H 0.0 **** 0.0
24188 H 42.109 85.424 42.35 H 0.0 **** 0.0
24189 H 43.761 86.087 42.346 H 0.0 **** 0.0
24190 H 42.361 87.187 42.356 H 0.0 **** 0.0
24191 C 11.101 36.464 27.016 C 0.0 **** 0.0
24192 H 11.5 35.937 26.149 H 0.0 **** 0.0
24193 H 10.331 35.854 27.489 H 0.0 **** 0.0
24194 H 10.668 37.412 26.697 H 0.0 **** 0.0
24195 H 11.904 36.653 27.728 H 0.0 **** 0.0
24196 C 34.447 7.144 84.052 C 0.0 **** 0.0
24197 H 34.536 7.432 85.1 H 0.0 **** 0.0
24198 H 35.148 7.727 83.455 H 0.0 **** 0.0
24199 H 33.43 7.335 83.708 H 0.0 **** 0.0
24200 H 34.673 6.083 83.946 H 0.0 **** 0.0
24201 C 10.096 86.837 60.745 C 0.0 **** 0.0
24202 H 9.328 86.52 60.04 H 0.0 **** 0.0
24203 H 11.078 86.741 60.281 H 0.0 **** 0.0
24204 H 10.053 86.211 61.636 H 0.0 **** 0.0
24205 H 9.926 87.877 61.023 H 0.0 **** 0.0
24206 C 38.236 34.702 7.152 C 0.0 **** 0.0
24207 H 39.189 34.549 6.645 H 0.0 **** 0.0
24208 H 38.231 35.682 7.63 H 0.0 **** 0.0
24209 H 38.097 33.928 7.907 H 0.0 **** 0.0
24210 H 37.426 34.649 6.424 H 0.0 **** 0.0
24211 C 89.511 8.947 56.227 C 0.0 **** 0.0
24212 H 90.45 8.529 55.864 H 0.0 **** 0.0
24213 H 88.679 8.344 55.863 H 0.0 **** 0.0
24214 H 89.405 9.969 55.863 H 0.0 **** 0.0
24215 H 89.511 8.947 57.317 H 0.0 **** 0.0
24216 C 87.747 57.23 17.992 C 0.0 **** 0.0
24217 H 87.874 58.041 18.709 H 0.0 **** 0.0
24218 H 88.476 56.447 18.197 H 0.0 **** 0.0
24219 H 87.897 57.612 16.982 H 0.0 **** 0.0
24220 H 86.74 56.822 18.081 H 0.0 **** 0.0
24221 C 51.346 64.071 45.464 C 0.0 **** 0.0
24222 H 51.451 64.882 44.743 H 0.0 **** 0.0
24223 H 52.024 63.259 45.199 H 0.0 **** 0.0
24224 H 50.319 63.705 45.452 H 0.0 **** 0.0
24225 H 51.589 64.437 46.461 H 0.0 **** 0.0
24226 C 2.008 14.965 84.645 C 0.0 **** 0.0
24227 H 1.96 15.252 85.695 H 0.0 **** 0.0
24228 H 1.574 13.972 84.52 H 0.0 **** 0.0
24229 H 3.048 14.952 84.318 H 0.0 **** 0.0
24230 H 1.448 15.684 84.046 H 0.0 **** 0.0
24231 C 67.625 90.781 59.391 C 0.0 **** 0.0
24232 H 67.727 90.794 58.306 H 0.0 **** 0.0
24233 H 67.013 89.928 59.687 H 0.0 **** 0.0
24234 H 67.147 91.703 59.721 H 0.0 **** 0.0
24235 H 68.61 90.698 59.848 H 0.0 **** 0.0
24236 C 30.549 66.652 7.483 C 0.0 **** 0.0
24237 H 30.024 67.09 6.634 H 0.0 **** 0.0
24238 H 30.255 65.608 7.592 H 0.0 **** 0.0
24239 H 30.291 67.199 8.39 H 0.0 **** 0.0
24240 H 31.624 66.713 7.316 H 0.0 **** 0.0
24241 C 25.092 72.162 56.368 C 0.0 **** 0.0
24242 H 24.449 72.184 55.488 H 0.0 **** 0.0
24243 H 25.196 73.171 56.767 H 0.0 **** 0.0
24244 H 26.073 71.777 56.091 H 0.0 **** 0.0
24245 H 24.648 71.515 57.125 H 0.0 **** 0.0
24246 C 33.269 95.306 47.935 C 0.0 **** 0.0
24247 H 32.484 94.583 47.711 H 0.0 **** 0.0
24248 H 33.328 95.454 49.014 H 0.0 **** 0.0
24249 H 33.038 96.254 47.449 H 0.0 **** 0.0
24250 H 34.224 94.931 47.567 H 0.0 **** 0.0
24251 C 61.413 23.181 32.044 C 0.0 **** 0.0
24252 H 61.373 22.811 33.068 H 0.0 **** 0.0
24253 H 60.944 24.164 31.995 H 0.0 **** 0.0
24254 H 60.883 22.492 31.387 H 0.0 **** 0.0
24255 H 62.453 23.259 31.726 H 0.0 **** 0.0
24256 C 16.5 9.326 64.217 C 0.0 **** 0.0
24257 H 16.302 9.773 63.243 H 0.0 **** 0.0
24258 H 15.907 9.835 64.978 H 0.0 **** 0.0
24259 H 17.559 9.426 64.454 H 0.0 **** 0.0
24260 H 16.231 8.27 64.193 H 0.0 **** 0.0
24261 C 84.689 59.273 83.489 C 0.0 **** 0.0
24262 H 85.205 58.752 84.296 H 0.0 **** 0.0
24263 H 83.657 59.465 83.783 H 0.0 **** 0.0
24264 H 84.702 58.655 82.591 H 0.0 **** 0.0
24265 H 85.192 60.218 83.288 H 0.0 **** 0.0
24266 C 82.176 58.924 8.373 C 0.0 **** 0.0
24267 H 82.287 58.901 7.289 H 0.0 **** 0.0
24268 H 81.133 59.118 8.626 H 0.0 **** 0.0
24269 H 82.803 59.714 8.786 H 0.0 **** 0.0
24270 H 82.479 57.963 8.789 H 0.0 **** 0.0
24271 C 7.449 49.826 3.981 C 0.0 **** 0.0
24272 H 7.068 50.223 4.922 H 0.0 **** 0.0
24273 H 7.764 50.651 3.34 H 0.0 **** 0.0
24274 H 6.664 49.258 3.482 H 0.0 **** 0.0
24275 H 8.299 49.175 4.179 H 0.0 **** 0.0
24276 C 38.17 13.797 45.486 C 0.0 **** 0.0
24277 H 37.38 13.529 46.187 H 0.0 **** 0.0
24278 H 37.726 14.141 44.552 H 0.0 **** 0.0
24279 H 38.795 12.925 45.292 H 0.0 **** 0.0
24280 H 38.78 14.593 45.914 H 0.0 **** 0.0
24281 C 53.656 30.922 8.967 C 0.0 **** 0.0
24282 H 53.939 31.542 9.817 H 0.0 **** 0.0
24283 H 53.343 31.561 8.14 H 0.0 **** 0.0
24284 H 52.834 30.267 9.253 H 0.0 **** 0.0
24285 H 54.51 30.32 8.657 H 0.0 **** 0.0
24286 C 41.181 57.113 82.266 C 0.0 **** 0.0
24287 H 40.778 56.769 83.219 H 0.0 **** 0.0
24288 H 41.335 56.259 81.607 H 0.0 **** 0.0
24289 H 42.132 57.618 82.436 H 0.0 **** 0.0
24290 H 40.479 57.807 81.805 H 0.0 **** 0.0
24291 C 63.995 78.623 34.634 C 0.0 **** 0.0
24292 H 64.09 77.546 34.773 H 0.0 **** 0.0
24293 H 64.972 79.047 34.402 H 0.0 **** 0.0
24294 H 63.611 79.074 35.549 H 0.0 **** 0.0
24295 H 63.307 78.824 33.813 H 0.0 **** 0.0
24296 C 40.809 41.716 17.749 C 0.0 **** 0.0
24297 H 40.124 40.959 17.366 H 0.0 **** 0.0
24298 H 41.699 41.23 18.151 H 0.0 **** 0.0
24299 H 40.318 42.285 18.538 H 0.0 **** 0.0
24300 H 41.096 42.388 16.94 H 0.0 **** 0.0
24301 C 85.857 85.852 53.403 C 0.0 **** 0.0
24302 H 85.979 86.17 52.368 H 0.0 **** 0.0
24303 H 86.504 84.996 53.598 H 0.0 **** 0.0
24304 H 84.819 85.57 53.576 H 0.0 **** 0.0
24305 H 86.128 86.671 54.069 H 0.0 **** 0.0
24306 C 20.519 9.469 97.389 C 0.0 **** 0.0
24307 H 20.296 10.012 96.471 H 0.0 **** 0.0
24308 H 20.397 8.399 97.217 H 0.0 **** 0.0
24309 H 19.835 9.791 98.175 H 0.0 **** 0.0
24310 H 21.545 9.674 97.693 H 0.0 **** 0.0
24311 C 60.488 31.716 91.909 C 0.0 **** 0.0
24312 H 61.452 32.049 92.293 H 0.0 **** 0.0
24313 H 60.541 30.656 91.661 H 0.0 **** 0.0
24314 H 60.237 32.287 91.014 H 0.0 **** 0.0
24315 H 59.721 31.875 92.667 H 0.0 **** 0.0
24316 C 59.158 19.977 52.968 C 0.0 **** 0.0
24317 H 59.45 20.653 52.164 H 0.0 **** 0.0
24318 H 59.581 18.989 52.783 H 0.0 **** 0.0
24319 H 58.071 19.906 53.007 H 0.0 **** 0.0
24320 H 59.531 20.36 53.918 H 0.0 **** 0.0
24321 C 7.296 45.958 55.431 C 0.0 **** 0.0
24322 H 6.725 45.316 56.102 H 0.0 **** 0.0
24323 H 8.199 46.299 55.938 H 0.0 **** 0.0
24324 H 6.69 46.819 55.149 H 0.0 **** 0.0
24325 H 7.569 45.398 54.537 H 0.0 **** 0.0
24326 C 95.94 24.67 87.183 C 0.0 **** 0.0
24327 H 95.87 24.411 88.239 H 0.0 **** 0.0
24328 H 96.759 24.114 86.726 H 0.0 **** 0.0
24329 H 96.126 25.74 87.083 H 0.0 **** 0.0
24330 H 95.005 24.416 86.684 H 0.0 **** 0.0
24331 C 54.616 51.182 78.953 C 0.0 **** 0.0
24332 H 54.905 52.089 79.484 H 0.0 **** 0.0
24333 H 54.151 50.486 79.651 H 0.0 **** 0.0
24334 H 55.501 50.721 78.515 H 0.0 **** 0.0
24335 H 53.908 51.434 78.164 H 0.0 **** 0.0
24336 C 51.37 24.183 17.941 C 0.0 **** 0.0
24337 H 52.221 24.864 17.92 H 0.0 **** 0.0
24338 H 51.688 23.215 18.326 H 0.0 **** 0.0
24339 H 50.978 24.062 16.931 H 0.0 **** 0.0
24340 H 50.592 24.594 18.585 H 0.0 **** 0.0
24341 C 1.308 40.817 66.739 C 0.0 **** 0.0
24342 H 1.274 40.798 65.649 H 0.0 **** 0.0
24343 H 1.695 39.867 67.107 H 0.0 **** 0.0
24344 H 0.303 40.976 67.13 H 0.0 **** 0.0
24345 H 1.958 41.627 67.067 H 0.0 **** 0.0
24346 C 52.11 56.229 7.378 C 0.0 **** 0.0
24347 H 52.15 56.202 8.467 H 0.0 **** 0.0
24348 H 51.19 56.721 7.06 H 0.0 **** 0.0
24349 H 52.131 55.211 6.989 H 0.0 **** 0.0
24350 H 52.968 56.781 6.996 H 0.0 **** 0.0
24351 C 25.588 59.791 22.176 C 0.0 **** 0.0
24352 H 25.39 58.72 22.147 H 0.0 **** 0.0
24353 H 24.799 60.291 22.737 H 0.0 **** 0.0
24354 H 25.615 60.183 21.159 H 0.0 **** 0.0
24355 H 26.548 59.97 22.66 H 0.0 **** 0.0
24356 C 70.046 30.842 19.766 C 0.0 **** 0.0
24357 H 69.713 30.843 20.803 H 0.0 **** 0.0
24358 H 71.093 30.539 19.721 H 0.0 **** 0.0
24359 H 69.94 31.844 19.349 H 0.0 **** 0.0
24360 H 69.44 30.143 19.19 H 0.0 **** 0.0
24361 C 59.165 81.642 33.752 C 0.0 **** 0.0
24362 H 58.255 81.534 33.161 H 0.0 **** 0.0
24363 H 58.91 81.651 34.812 H 0.0 **** 0.0
24364 H 59.659 82.577 33.489 H 0.0 **** 0.0
24365 H 59.834 80.807 33.545 H 0.0 **** 0.0
24366 C 35.145 11.114 48.584 C 0.0 **** 0.0
24367 H 34.869 10.833 49.6 H 0.0 **** 0.0
24368 H 34.415 11.822 48.192 H 0.0 **** 0.0
24369 H 35.165 10.225 47.954 H 0.0 **** 0.0
24370 H 36.132 11.577 48.592 H 0.0 **** 0.0
24371 C 24.23 24.73 43.393 C 0.0 **** 0.0
24372 H 23.147 24.616 43.337 H 0.0 **** 0.0
24373 H 24.593 24.294 44.324 H 0.0 **** 0.0
24374 H 24.485 25.789 43.363 H 0.0 **** 0.0
24375 H 24.693 24.22 42.548 H 0.0 **** 0.0
24376 C 50.62 9.275 43.239 C 0.0 **** 0.0
24377 H 49.995 9.351 42.349 H 0.0 **** 0.0
24378 H 51.186 10.198 43.366 H 0.0 **** 0.0
24379 H 51.31 8.438 43.128 H 0.0 **** 0.0
24380 H 49.989 9.112 44.113 H 0.0 **** 0.0
24381 C 39.791 30.638 6.595 C 0.0 **** 0.0
24382 H 40.254 29.781 6.104 H 0.0 **** 0.0
24383 H 38.708 30.52 6.586 H 0.0 **** 0.0
24384 H 40.062 31.55 6.064 H 0.0 **** 0.0
24385 H 40.142 30.699 7.625 H 0.0 **** 0.0
24386 C 19.841 31.471 31.196 C 0.0 **** 0.0
24387 H 20.053 30.827 30.343 H 0.0 **** 0.0
24388 H 20.507 31.213 32.02 H 0.0 **** 0.0
24389 H 18.806 31.331 31.508 H 0.0 **** 0.0
24390 H 19.998 32.512 30.913 H 0.0 **** 0.0
24391 C 46.676 35.863 63.481 C 0.0 **** 0.0
24392 H 46.634 36.951 63.445 H 0.0 **** 0.0
24393 H 45.674 35.456 63.338 H 0.0 **** 0.0
24394 H 47.062 35.546 64.45 H 0.0 **** 0.0
24395 H 47.333 35.498 62.691 H 0.0 **** 0.0
24396 C 9.215 77.267 77.71 C 0.0 **** 0.0
24397 H 9.19 77.425 76.632 H 0.0 **** 0.0
24398 H 8.39 77.805 78.175 H 0.0 **** 0.0
24399 H 10.161 77.635 78.108 H 0.0 **** 0.0
24400 H 9.122 76.202 77.923 H 0.0 **** 0.0
24401 C 73.69 33.979 13.924 C 0.0 **** 0.0
24402 H 73.904 33.473 14.865 H 0.0 **** 0.0
24403 H 74.342 33.586 13.143 H 0.0 **** 0.0
24404 H 73.864 35.049 14.04 H 0.0 **** 0.0
24405 H 72.649 33.808 13.649 H 0.0 **** 0.0
24406 C 56.445 76.454 19.886 C 0.0 **** 0.0
24407 H 56.061 75.971 18.987 H 0.0 **** 0.0
24408 H 57.052 77.316 19.604 H 0.0 **** 0.0
24409 H 57.057 75.747 20.446 H 0.0 **** 0.0
24410 H 55.611 76.784 20.505 H 0.0 **** 0.0
24411 C 56.262 35.353 11.165 C 0.0 **** 0.0
24412 H 55.886 35.556 12.168 H 0.0 **** 0.0
24413 H 56.694 36.263 10.748 H 0.0 **** 0.0
24414 H 55.442 35.016 10.531 H 0.0 **** 0.0
24415 H 57.026 34.577 11.213 H 0.0 **** 0.0
24416 C 42.56 71.838 74.628 C 0.0 **** 0.0
24417 H 42.663 71.204 75.509 H 0.0 **** 0.0
24418 H 41.704 71.505 74.04 H 0.0 **** 0.0
24419 H 43.465 71.771 74.025 H 0.0 **** 0.0
24420 H 42.406 72.871 74.941 H 0.0 **** 0.0
24421 C 40.037 94.36 58.75 C 0.0 **** 0.0
24422 H 40.481 95.355 58.792 H 0.0 **** 0.0
24423 H 39.676 94.082 59.74 H 0.0 **** 0.0
24424 H 40.788 93.642 58.421 H 0.0 **** 0.0
24425 H 39.205 94.363 58.046 H 0.0 **** 0.0
24426 C 15.359 12.613 29.326 C 0.0 **** 0.0
24427 H 14.992 12.593 28.299 H 0.0 **** 0.0
24428 H 14.577 12.256 29.997 H 0.0 **** 0.0
24429 H 15.631 13.634 29.595 H 0.0 **** 0.0
24430 H 16.234 11.969 29.411 H 0.0 **** 0.0
24431 C 92.333 19.435 13.254 C 0.0 **** 0.0
24432 H 92.596 19.38 14.311 H 0.0 **** 0.0
24433 H 92.744 20.349 12.825 H 0.0 **** 0.0
24434 H 91.248 19.439 13.149 H 0.0 **** 0.0
24435 H 92.745 18.571 12.733 H 0.0 **** 0.0
24436 C 63.056 32.307 20.076 C 0.0 **** 0.0
24437 H 63.135 32.18 21.156 H 0.0 **** 0.0
24438 H 62.243 32.997 19.851 H 0.0 **** 0.0
24439 H 62.853 31.342 19.611 H 0.0 **** 0.0
24440 H 63.992 32.708 19.688 H 0.0 **** 0.0
24441 C 37.28 76.428 41.161 C 0.0 **** 0.0
24442 H 37.217 76.214 40.094 H 0.0 **** 0.0
24443 H 36.828 77.4 41.363 H 0.0 **** 0.0
24444 H 38.325 76.442 41.468 H 0.0 **** 0.0
24445 H 36.747 75.657 41.718 H 0.0 **** 0.0
24446 C 30.535 20.515 34.273 C 0.0 **** 0.0
24447 H 30.756 20.626 35.335 H 0.0 **** 0.0
24448 H 30.079 21.432 33.9 H 0.0 **** 0.0
24449 H 29.848 19.682 34.13 H 0.0 **** 0.0
24450 H 31.46 20.321 33.729 H 0.0 **** 0.0
24451 C 71.232 29.915 33.828 C 0.0 **** 0.0
24452 H 71.227 29.903 34.918 H 0.0 **** 0.0
24453 H 70.375 29.355 33.454 H 0.0 **** 0.0
24454 H 72.152 29.458 33.464 H 0.0 **** 0.0
24455 H 71.174 30.945 33.476 H 0.0 **** 0.0
24456 C 32.292 89.586 42.17 C 0.0 **** 0.0
24457 H 31.695 90.308 41.613 H 0.0 **** 0.0
24458 H 31.65 88.777 42.52 H 0.0 **** 0.0
24459 H 32.754 90.08 43.025 H 0.0 **** 0.0
24460 H 33.069 89.179 41.521 H 0.0 **** 0.0
24461 C 98.061 84.097 39.4 C 0.0 **** 0.0
24462 H 97.936 83.031 39.211 H 0.0 **** 0.0
24463 H 97.082 84.578 39.43 H 0.0 **** 0.0
24464 H 98.659 84.54 38.603 H 0.0 **** 0.0
24465 H 98.566 84.241 40.355 H 0.0 **** 0.0
24466 C 27.233 45.462 46.503 C 0.0 **** 0.0
24467 H 26.199 45.361 46.171 H 0.0 **** 0.0
24468 H 27.802 44.588 46.188 H 0.0 **** 0.0
24469 H 27.259 45.542 47.589 H 0.0 **** 0.0
24470 H 27.669 46.359 46.062 H 0.0 **** 0.0
24471 C 83.475 53.133 12.987 C 0.0 **** 0.0
24472 H 83.632 52.182 13.496 H 0.0 **** 0.0
24473 H 83.915 53.937 13.577 H 0.0 **** 0.0
24474 H 82.406 53.31 12.871 H 0.0 **** 0.0
24475 H 83.947 53.101 12.005 H 0.0 **** 0.0
24476 C 81.567 68.175 16.564 C 0.0 **** 0.0
24477 H 81.604 67.33 17.252 H 0.0 **** 0.0
24478 H 82.029 67.893 15.617 H 0.0 **** 0.0
24479 H 82.107 69.018 16.995 H 0.0 **** 0.0
24480 H 80.529 68.457 16.392 H 0.0 **** 0.0
24481 C 75.208 84.598 60.679 C 0.0 **** 0.0
24482 H 75.201 84.426 61.755 H 0.0 **** 0.0
24483 H 75.512 85.625 60.477 H 0.0 **** 0.0
24484 H 74.209 84.428 60.278 H 0.0 **** 0.0
24485 H 75.911 83.911 60.207 H 0.0 **** 0.0
24486 C 49.813 91.106 90.204 C 0.0 **** 0.0
24487 H 49.08 91.585 89.554 H 0.0 **** 0.0
24488 H 49.985 91.732 91.08 H 0.0 **** 0.0
24489 H 50.749 90.975 89.661 H 0.0 **** 0.0
24490 H 49.436 90.133 90.519 H 0.0 **** 0.0
24491 C 64.451 54.993 66.498 C 0.0 **** 0.0
24492 H 64.574 55.666 67.346 H 0.0 **** 0.0
24493 H 65.144 55.277 65.705 H 0.0 **** 0.0
24494 H 63.428 55.058 66.128 H 0.0 **** 0.0
24495 H 64.659 53.97 66.813 H 0.0 **** 0.0
24496 C 75.729 28.18 92.084 C 0.0 **** 0.0
24497 H 76.171 27.63 92.914 H 0.0 **** 0.0
24498 H 74.696 27.861 91.945 H 0.0 **** 0.0
24499 H 76.296 27.982 91.174 H 0.0 **** 0.0
24500 H 75.754 29.248 92.302 H 0.0 **** 0.0
24501 C 36.97 19.248 7.388 C 0.0 **** 0.0
24502 H 37.013 18.833 6.381 H 0.0 **** 0.0
24503 H 35.991 19.699 7.553 H 0.0 **** 0.0
24504 H 37.744 20.006 7.502 H 0.0 **** 0.0
24505 H 37.13 18.452 8.115 H 0.0 **** 0.0
24506 C 9.637 71.52 62.924 C 0.0 **** 0.0
24507 H 9.653 71.523 64.014 H 0.0 **** 0.0
24508 H 9.417 70.514 62.566 H 0.0 **** 0.0
24509 H 10.609 71.837 62.546 H 0.0 **** 0.0
24510 H 8.868 72.208 62.57 H 0.0 **** 0.0
24511 C 49.978 5.449 16.674 C 0.0 **** 0.0
24512 H 49.788 5.209 15.627 H 0.0 **** 0.0
24513 H 50.346 6.472 16.75 H 0.0 **** 0.0
24514 H 50.724 4.763 17.074 H 0.0 **** 0.0
24515 H 49.053 5.351 17.242 H 0.0 **** 0.0
24516 C 96.457 90.721 57.406 C 0.0 **** 0.0
24517 H 96.269 91.39 56.566 H 0.0 **** 0.0
24518 H 96.54 89.696 57.042 H 0.0 **** 0.0
24519 H 95.633 90.789 58.116 H 0.0 **** 0.0
24520 H 97.386 91.008 57.899 H 0.0 **** 0.0
24521 C 60.354 79.4 93.633 C 0.0 **** 0.0
24522 H 60.11 79.602 94.676 H 0.0 **** 0.0
24523 H 61.116 78.622 93.582 H 0.0 **** 0.0
24524 H 60.732 80.31 93.166 H 0.0 **** 0.0
24525 H 59.458 79.068 93.108 H 0.0 **** 0.0
24526 C 47.39 37.746 29.097 C 0.0 **** 0.0
24527 H 47.851 36.901 29.608 H 0.0 **** 0.0
24528 H 47.584 37.672 28.026 H 0.0 **** 0.0
24529 H 47.811 38.675 29.48 H 0.0 **** 0.0
24530 H 46.315 37.734 29.273 H 0.0 **** 0.0
24531 C 66.021 38.388 27.483 C 0.0 **** 0.0
24532 H 66.867 38.262 26.808 H 0.0 **** 0.0
24533 H 66.306 38.072 28.486 H 0.0 **** 0.0
24534 H 65.185 37.781 27.134 H 0.0 **** 0.0
24535 H 65.725 39.437 27.502 H 0.0 **** 0.0
24536 C 64.523 67.394 48.795 C 0.0 **** 0.0
24537 H 64.971 66.911 49.663 H 0.0 **** 0.0
24538 H 64.563 66.717 47.942 H 0.0 **** 0.0
24539 H 65.074 68.306 48.563 H 0.0 **** 0.0
24540 H 63.485 67.643 49.014 H 0.0 **** 0.0
24541 C 40.433 12.216 96.872 C 0.0 **** 0.0
24542 H 41.411 11.834 96.577 H 0.0 **** 0.0
24543 H 40.489 13.298 96.997 H 0.0 **** 0.0
24544 H 40.132 11.756 97.813 H 0.0 **** 0.0
24545 H 39.702 11.976 96.1 H 0.0 **** 0.0
24546 C 23.09 79.409 19.998 C 0.0 **** 0.0
24547 H 22.791 79.147 21.013 H 0.0 **** 0.0
24548 H 22.718 80.404 19.755 H 0.0 **** 0.0
24549 H 22.673 78.684 19.299 H 0.0 **** 0.0
24550 H 24.178 79.399 19.926 H 0.0 **** 0.0
24551 C 22.569 75.722 46.886 C 0.0 **** 0.0
24552 H 22.683 76.531 46.165 H 0.0 **** 0.0
24553 H 23.035 74.818 46.493 H 0.0 **** 0.0
24554 H 21.51 75.538 47.062 H 0.0 **** 0.0
24555 H 23.051 76.001 47.823 H 0.0 **** 0.0
24556 C 62.657 14.11 67.863 C 0.0 **** 0.0
24557 H 62.933 14.253 66.819 H 0.0 **** 0.0
24558 H 63.511 14.344 68.5 H 0.0 **** 0.0
24559 H 62.36 13.073 68.021 H 0.0 **** 0.0
24560 H 61.826 14.769 68.113 H 0.0 **** 0.0
24561 C 21.81 8.987 30.082 C 0.0 **** 0.0
24562 H 22.368 9.148 31.004 H 0.0 **** 0.0
24563 H 21.234 8.064 30.163 H 0.0 **** 0.0
24564 H 22.505 8.91 29.246 H 0.0 **** 0.0
24565 H 21.133 9.825 29.916 H 0.0 **** 0.0
24566 C 80.589 70.794 79.115 C 0.0 **** 0.0
24567 H 80.76 70.566 78.063 H 0.0 **** 0.0
24568 H 80.631 71.873 79.264 H 0.0 **** 0.0
24569 H 81.357 70.313 79.72 H 0.0 **** 0.0
24570 H 79.607 70.424 79.411 H 0.0 **** 0.0
24571 C 81.893 41.614 12.405 C 0.0 **** 0.0
24572 H 81.192 41.974 11.652 H 0.0 **** 0.0
24573 H 81.602 40.612 12.721 H 0.0 **** 0.0
24574 H 81.881 42.284 13.264 H 0.0 **** 0.0
24575 H 82.897 41.585 11.981 H 0.0 **** 0.0
24576 C 59.837 1.283 23.015 C 0.0 **** 0.0
24577 H 59.549 0.877 22.045 H 0.0 **** 0.0
24578 H 59.081 1.994 23.35 H 0.0 **** 0.0
24579 H 60.798 1.789 22.926 H 0.0 **** 0.0
24580 H 59.919 0.472 23.738 H 0.0 **** 0.0
24581 C 86.939 14.008 59.505 C 0.0 **** 0.0
24582 H 86.302 13.762 60.355 H 0.0 **** 0.0
24583 H 87.882 13.468 59.59 H 0.0 **** 0.0
24584 H 87.133 15.081 59.495 H 0.0 **** 0.0
24585 H 86.437 13.721 58.581 H 0.0 **** 0.0
24586 C 87.114 25.826 31.241 C 0.0 **** 0.0
24587 H 87.455 26.862 31.245 H 0.0 **** 0.0
24588 H 87.002 25.477 32.267 H 0.0 **** 0.0
24589 H 87.846 25.206 30.723 H 0.0 **** 0.0
24590 H 86.155 25.761 30.727 H 0.0 **** 0.0
24591 C 43.213 84.02 7.822 C 0.0 **** 0.0
24592 H 43.786 84.242 8.723 H 0.0 **** 0.0
24593 H 42.994 84.948 7.294 H 0.0 **** 0.0
24594 H 42.279 83.53 8.097 H 0.0 **** 0.0
24595 H 43.793 83.362 7.176 H 0.0 **** 0.0
24596 C 66.435 38.211 4.364 C 0.0 **** 0.0
24597 H 67.292 37.569 4.568 H 0.0 **** 0.0
24598 H 66.579 39.174 4.853 H 0.0 **** 0.0
24599 H 65.53 37.74 4.747 H 0.0 **** 0.0
24600 H 66.341 38.36 3.288 H 0.0 **** 0.0
24601 C 69.418 11.31 25.314 C 0.0 **** 0.0
24602 H 68.892 11.302 26.269 H 0.0 **** 0.0
24603 H 68.879 10.69 24.598 H 0.0 **** 0.0
24604 H 70.425 10.916 25.452 H 0.0 **** 0.0
24605 H 69.475 12.332 24.94 H 0.0 **** 0.0
24606 C 46.449 74.693 73.527 C 0.0 **** 0.0
24607 H 46.455 74.766 74.615 H 0.0 **** 0.0
24608 H 47.269 75.284 73.119 H 0.0 **** 0.0
24609 H 45.502 75.071 73.143 H 0.0 **** 0.0
24610 H 46.57 73.65 73.233 H 0.0 **** 0.0
24611 C 35.573 28.815 48.019 C 0.0 **** 0.0
24612 H 35.173 29.286 48.917 H 0.0 **** 0.0
24613 H 36.055 27.874 48.285 H 0.0 **** 0.0
24614 H 36.304 29.479 47.556 H 0.0 **** 0.0
24615 H 34.762 28.623 47.317 H 0.0 **** 0.0
24616 C 26.999 5.933 27.97 C 0.0 **** 0.0
24617 H 27.548 6.868 27.854 H 0.0 **** 0.0
24618 H 25.929 6.129 27.896 H 0.0 **** 0.0
24619 H 27.223 5.499 28.944 H 0.0 **** 0.0
24620 H 27.296 5.238 27.185 H 0.0 **** 0.0
24621 C 53.197 11.339 69.777 C 0.0 **** 0.0
24622 H 53.92 11.768 70.471 H 0.0 **** 0.0
24623 H 52.193 11.656 70.057 H 0.0 **** 0.0
24624 H 53.26 10.251 69.814 H 0.0 **** 0.0
24625 H 53.418 11.681 68.766 H 0.0 **** 0.0
24626 C 81.992 44.723 67.461 C 0.0 **** 0.0
24627 H 81.111 44.233 67.046 H 0.0 **** 0.0
24628 H 81.696 45.654 67.944 H 0.0 **** 0.0
24629 H 82.699 44.938 66.659 H 0.0 **** 0.0
24630 H 82.462 44.066 68.193 H 0.0 **** 0.0
24631 C 73.334 73.764 4.777 C 0.0 **** 0.0
24632 H 72.418 73.221 5.007 H 0.0 **** 0.0
24633 H 73.598 73.604 3.731 H 0.0 **** 0.0
24634 H 74.141 73.404 5.415 H 0.0 **** 0.0
24635 H 73.179 74.829 4.954 H 0.0 **** 0.0
24636 C 51.266 76.651 15.736 C 0.0 **** 0.0
24637 H 52.228 77.031 15.391 H 0.0 **** 0.0
24638 H 50.629 76.442 14.876 H 0.0 **** 0.0
24639 H 50.788 77.396 16.371 H 0.0 **** 0.0
24640 H 51.421 75.734 16.304 H 0.0 **** 0.0
24641 C 36.894 47.521 29.572 C 0.0 **** 0.0
24642 H 36.832 47.639 28.49 H 0.0 **** 0.0
24643 H 36.412 48.369 30.058 H 0.0 **** 0.0
24644 H 37.941 47.477 29.873 H 0.0 **** 0.0
24645 H 36.392 46.599 29.867 H 0.0 **** 0.0
24646 C 75.036 13.602 15.462 C 0.0 **** 0.0
24647 H 76.109 13.772 15.55 H 0.0 **** 0.0
24648 H 74.855 12.564 15.181 H 0.0 **** 0.0
24649 H 74.625 14.262 14.699 H 0.0 **** 0.0
24650 H 74.555 13.808 16.418 H 0.0 **** 0.0
24651 C 91.288 33.606 95.946 C 0.0 **** 0.0
24652 H 90.579 33.302 95.175 H 0.0 **** 0.0
24653 H 91.346 34.695 95.976 H 0.0 **** 0.0
24654 H 92.271 33.196 95.717 H 0.0 **** 0.0
24655 H 90.954 33.233 96.914 H 0.0 **** 0.0
24656 C 17.452 26.915 80.015 C 0.0 **** 0.0
24657 H 17.327 26.848 78.934 H 0.0 **** 0.0
24658 H 17.59 27.958 80.3 H 0.0 **** 0.0
24659 H 18.326 26.337 80.316 H 0.0 **** 0.0
24660 H 16.566 26.516 80.508 H 0.0 **** 0.0
24661 C 89.137 50.169 35.575 C 0.0 **** 0.0
24662 H 89.637 50.051 36.537 H 0.0 **** 0.0
24663 H 89.214 51.208 35.252 H 0.0 **** 0.0
24664 H 88.087 49.897 35.677 H 0.0 **** 0.0
24665 H 89.611 49.522 34.838 H 0.0 **** 0.0
24666 C 64.767 29.342 91.966 C 0.0 **** 0.0
24667 H 65.607 29.244 92.653 H 0.0 **** 0.0
24668 H 64.048 28.545 92.156 H 0.0 **** 0.0
24669 H 65.127 29.27 90.939 H 0.0 **** 0.0
24670 H 64.286 30.309 92.115 H 0.0 **** 0.0
24671 C 27.692 42.713 76.77 C 0.0 **** 0.0
24672 H 27.387 42.532 77.801 H 0.0 **** 0.0
24673 H 27.607 41.789 76.199 H 0.0 **** 0.0
24674 H 28.726 43.058 76.753 H 0.0 **** 0.0
24675 H 27.047 43.474 76.329 H 0.0 **** 0.0
24676 C 57.907 55.848 89.401 C 0.0 **** 0.0
24677 H 58.567 55.591 90.23 H 0.0 **** 0.0
24678 H 57.685 56.915 89.431 H 0.0 **** 0.0
24679 H 56.98 55.281 89.486 H 0.0 **** 0.0
24680 H 58.397 55.604 88.458 H 0.0 **** 0.0
24681 C 45.435 58.036 2.06 C 0.0 **** 0.0
24682 H 45.051 59.022 1.802 H 0.0 **** 0.0
24683 H 45.73 57.512 1.151 H 0.0 **** 0.0
24684 H 44.66 57.467 2.573 H 0.0 **** 0.0
24685 H 46.3 58.143 2.715 H 0.0 **** 0.0
24686 C 15.397 80.576 52.2 C 0.0 **** 0.0
24687 H 15.889 79.664 52.537 H 0.0 **** 0.0
24688 H 14.437 80.325 51.748 H 0.0 **** 0.0
24689 H 16.025 81.077 51.464 H 0.0 **** 0.0
24690 H 15.236 81.238 53.051 H 0.0 **** 0.0
24691 C 52.852 31.587 3.946 C 0.0 **** 0.0
24692 H 53.608 32.294 3.604 H 0.0 **** 0.0
24693 H 52.709 31.699 5.021 H 0.0 **** 0.0
24694 H 53.181 30.571 3.727 H 0.0 **** 0.0
24695 H 51.912 31.783 3.431 H 0.0 **** 0.0
24696 C 13.005 22.18 13.253 C 0.0 **** 0.0
24697 H 12.569 22.043 14.242 H 0.0 **** 0.0
24698 H 12.215 22.155 12.502 H 0.0 **** 0.0
24699 H 13.719 21.38 13.057 H 0.0 **** 0.0
24700 H 13.517 23.141 13.211 H 0.0 **** 0.0
24701 C 89.803 73.661 4.495 C 0.0 **** 0.0
24702 H 89.87 73.626 3.407 H 0.0 **** 0.0
24703 H 88.782 73.906 4.788 H 0.0 **** 0.0
24704 H 90.484 74.422 4.876 H 0.0 **** 0.0
24705 H 90.076 72.689 4.906 H 0.0 **** 0.0
24706 C 26.879 18.127 95.936 C 0.0 **** 0.0
24707 H 27.695 18.506 96.552 H 0.0 **** 0.0
24708 H 25.926 18.362 96.41 H 0.0 **** 0.0
24709 H 26.976 17.046 95.831 H 0.0 **** 0.0
24710 H 26.921 18.593 94.952 H 0.0 **** 0.0
24711 C 70.295 51.869 34.616 C 0.0 **** 0.0
24712 H 69.747 52.712 34.195 H 0.0 **** 0.0
24713 H 69.622 51.02 34.73 H 0.0 **** 0.0
24714 H 70.698 52.148 35.589 H 0.0 **** 0.0
24715 H 71.113 51.598 33.948 H 0.0 **** 0.0
24716 C 69.583 45.215 25.702 C 0.0 **** 0.0
24717 H 70.168 45.898 26.318 H 0.0 **** 0.0
24718 H 69.817 44.186 25.977 H 0.0 **** 0.0
24719 H 69.826 45.375 24.652 H 0.0 **** 0.0
24720 H 68.521 45.401 25.862 H 0.0 **** 0.0
24721 C 59.885 86.889 42.549 C 0.0 **** 0.0
24722 H 59.761 87.535 43.419 H 0.0 **** 0.0
24723 H 60.263 87.477 41.712 H 0.0 **** 0.0
24724 H 58.923 86.452 42.281 H 0.0 **** 0.0
24725 H 60.593 86.095 42.784 H 0.0 **** 0.0
24726 C 92.585 74.649 2.702 C 0.0 **** 0.0
24727 H 91.652 74.991 2.254 H 0.0 **** 0.0
24728 H 93.021 75.454 3.294 H 0.0 **** 0.0
24729 H 93.281 74.358 1.915 H 0.0 **** 0.0
24730 H 92.386 73.791 3.345 H 0.0 **** 0.0
24731 C 13.058 24.842 68.973 C 0.0 **** 0.0
24732 H 14.013 25.269 68.666 H 0.0 **** 0.0
24733 H 13.226 24.103 69.757 H 0.0 **** 0.0
24734 H 12.583 24.363 68.117 H 0.0 **** 0.0
24735 H 12.412 25.634 69.352 H 0.0 **** 0.0
24736 C 76.062 21.843 23.539 C 0.0 **** 0.0
24737 H 75.656 20.903 23.165 H 0.0 **** 0.0
24738 H 77.078 21.973 23.168 H 0.0 **** 0.0
24739 H 76.072 21.826 24.629 H 0.0 **** 0.0
24740 H 75.44 22.669 23.195 H 0.0 **** 0.0
24741 C 69.382 49.706 94.982 C 0.0 **** 0.0
24742 H 69.764 49.815 93.967 H 0.0 **** 0.0
24743 H 68.815 48.778 95.058 H 0.0 **** 0.0
24744 H 68.733 50.549 95.219 H 0.0 **** 0.0
24745 H 70.216 49.681 95.683 H 0.0 **** 0.0
24746 C 88.822 84.25 47.926 C 0.0 **** 0.0
24747 H 89.208 85.076 48.523 H 0.0 **** 0.0
24748 H 89.63 83.826 47.329 H 0.0 **** 0.0
24749 H 88.035 84.615 47.266 H 0.0 **** 0.0
24750 H 88.416 83.484 48.586 H 0.0 **** 0.0
24751 C 88.425 11.688 89.712 C 0.0 **** 0.0
24752 H 88.324 11.399 90.759 H 0.0 **** 0.0
24753 H 87.928 10.95 89.082 H 0.0 **** 0.0
24754 H 89.482 11.739 89.45 H 0.0 **** 0.0
24755 H 87.965 12.665 89.56 H 0.0 **** 0.0
24756 C 57.668 28.974 6.981 C 0.0 **** 0.0
24757 H 58.283 28.123 6.687 H 0.0 **** 0.0
24758 H 56.969 29.21 6.18 H 0.0 **** 0.0
24759 H 58.308 29.836 7.172 H 0.0 **** 0.0
24760 H 57.114 28.725 7.886 H 0.0 **** 0.0
24761 C 46.755 69.956 68.131 C 0.0 **** 0.0
24762 H 47.09 69.036 68.608 H 0.0 **** 0.0
24763 H 46.444 69.742 67.108 H 0.0 **** 0.0
24764 H 47.572 70.678 68.119 H 0.0 **** 0.0
24765 H 45.914 70.369 68.688 H 0.0 **** 0.0
24766 C 84.856 15.51 95.329 C 0.0 **** 0.0
24767 H 84.557 15.72 96.356 H 0.0 **** 0.0
24768 H 85.636 16.208 95.028 H 0.0 **** 0.0
24769 H 83.994 15.621 94.671 H 0.0 **** 0.0
24770 H 85.235 14.49 95.263 H 0.0 **** 0.0
24771 C 66.409 65.782 23.694 C 0.0 **** 0.0
24772 H 66.282 64.993 24.435 H 0.0 **** 0.0
24773 H 66.036 65.437 22.729 H 0.0 **** 0.0
24774 H 67.467 66.031 23.607 H 0.0 **** 0.0
24775 H 65.852 66.665 24.005 H 0.0 **** 0.0
24776 C 0.591 57.851 50.199 C 0.0 **** 0.0
24777 H 0.0 58.303 50.996 H 0.0 **** 0.0
24778 H 0.002 57.081 49.702 H 0.0 **** 0.0
24779 H 1.491 57.405 50.623 H 0.0 **** 0.0
24780 H 0.872 58.617 49.476 H 0.0 **** 0.0
24781 C 2.992 94.403 34.427 C 0.0 **** 0.0
24782 H 3.6 94.47 35.329 H 0.0 **** 0.0
24783 H 2.099 93.813 34.635 H 0.0 **** 0.0
24784 H 3.568 93.924 33.635 H 0.0 **** 0.0
24785 H 2.7 95.404 34.11 H 0.0 **** 0.0
24786 C 85.059 74.756 33.464 C 0.0 **** 0.0
24787 H 84.657 74.826 32.453 H 0.0 **** 0.0
24788 H 84.312 75.106 34.177 H 0.0 **** 0.0
24789 H 85.954 75.374 33.542 H 0.0 **** 0.0
24790 H 85.314 73.719 33.683 H 0.0 **** 0.0
24791 C 44.329 83.727 17.168 C 0.0 **** 0.0
24792 H 43.99 84.146 16.221 H 0.0 **** 0.0
24793 H 43.6 83.0 17.526 H 0.0 **** 0.0
24794 H 44.434 84.527 17.902 H 0.0 **** 0.0
24795 H 45.292 83.237 17.025 H 0.0 **** 0.0
24796 C 97.028 6.0 37.509 C 0.0 **** 0.0
24797 H 96.887 7.063 37.31 H 0.0 **** 0.0
24798 H 96.715 5.423 36.639 H 0.0 **** 0.0
24799 H 96.428 5.71 38.372 H 0.0 **** 0.0
24800 H 98.08 5.806 37.716 H 0.0 **** 0.0
24801 C 40.117 23.881 40.355 C 0.0 **** 0.0
24802 H 40.29 23.787 41.427 H 0.0 **** 0.0
24803 H 39.47 24.738 40.166 H 0.0 **** 0.0
24804 H 39.638 22.975 39.983 H 0.0 **** 0.0
24805 H 41.069 24.025 39.844 H 0.0 **** 0.0
24806 C 1.046 70.118 14.206 C 0.0 **** 0.0
24807 H 2.119 69.931 14.255 H 0.0 **** 0.0
24808 H 0.729 70.649 15.104 H 0.0 **** 0.0
24809 H 0.514 69.169 14.139 H 0.0 **** 0.0
24810 H 0.822 70.724 13.328 H 0.0 **** 0.0
24811 C 53.609 57.843 75.979 C 0.0 **** 0.0
24812 H 54.396 58.35 75.421 H 0.0 **** 0.0
24813 H 53.811 57.924 77.047 H 0.0 **** 0.0
24814 H 53.582 56.791 75.693 H 0.0 **** 0.0
24815 H 52.648 58.306 75.753 H 0.0 **** 0.0
24816 C 29.441 6.707 59.221 C 0.0 **** 0.0
24817 H 28.858 6.474 60.112 H 0.0 **** 0.0
24818 H 29.937 5.804 58.865 H 0.0 **** 0.0
24819 H 30.19 7.461 59.465 H 0.0 **** 0.0
24820 H 28.779 7.09 58.444 H 0.0 **** 0.0
24821 C 15.01 93.82 6.961 C 0.0 **** 0.0
24822 H 14.052 93.324 6.803 H 0.0 **** 0.0
24823 H 15.318 94.316 6.041 H 0.0 **** 0.0
24824 H 15.759 93.08 7.244 H 0.0 **** 0.0
24825 H 14.909 94.558 7.757 H 0.0 **** 0.0
24826 C 81.743 88.89 45.476 C 0.0 **** 0.0
24827 H 81.455 89.902 45.19 H 0.0 **** 0.0
24828 H 80.908 88.404 45.981 H 0.0 **** 0.0
24829 H 82.599 88.934 46.149 H 0.0 **** 0.0
24830 H 82.01 88.323 44.585 H 0.0 **** 0.0
24831 C 23.171 25.085 72.885 C 0.0 **** 0.0
24832 H 22.931 24.804 71.86 H 0.0 **** 0.0
24833 H 22.751 26.068 73.1 H 0.0 **** 0.0
24834 H 24.254 25.118 73.008 H 0.0 **** 0.0
24835 H 22.749 24.351 73.572 H 0.0 **** 0.0
24836 C 30.169 45.941 34.485 C 0.0 **** 0.0
24837 H 30.163 45.973 35.575 H 0.0 **** 0.0
24838 H 29.176 45.671 34.124 H 0.0 **** 0.0
24839 H 30.893 45.2 34.148 H 0.0 **** 0.0
24840 H 30.444 46.921 34.095 H 0.0 **** 0.0
24841 C 57.111 29.067 38.934 C 0.0 **** 0.0
24842 H 57.241 30.115 38.664 H 0.0 **** 0.0
24843 H 56.383 28.607 38.265 H 0.0 **** 0.0
24844 H 56.754 28.999 39.962 H 0.0 **** 0.0
24845 H 58.065 28.548 38.846 H 0.0 **** 0.0
24846 C 67.128 29.333 42.204 C 0.0 **** 0.0
24847 H 66.111 29.327 42.597 H 0.0 **** 0.0
24848 H 67.256 28.496 41.517 H 0.0 **** 0.0
24849 H 67.836 29.24 43.027 H 0.0 **** 0.0
24850 H 67.306 30.269 41.674 H 0.0 **** 0.0
24851 C 52.661 48.905 33.518 C 0.0 **** 0.0
24852 H 52.922 49.415 34.445 H 0.0 **** 0.0
24853 H 51.68 49.243 33.181 H 0.0 **** 0.0
24854 H 52.636 47.829 33.689 H 0.0 **** 0.0
24855 H 53.406 49.134 32.755 H 0.0 **** 0.0
24856 C 20.165 5.276 2.464 C 0.0 **** 0.0
24857 H 20.133 6.102 1.754 H 0.0 **** 0.0
24858 H 21.202 4.99 2.643 H 0.0 **** 0.0
24859 H 19.619 4.425 2.056 H 0.0 **** 0.0
24860 H 19.705 5.586 3.402 H 0.0 **** 0.0
24861 C 76.528 97.229 59.545 C 0.0 **** 0.0
24862 H 75.686 97.873 59.8 H 0.0 **** 0.0
24863 H 76.658 97.214 58.462 H 0.0 **** 0.0
24864 H 76.332 96.218 59.901 H 0.0 **** 0.0
24865 H 77.433 97.612 60.015 H 0.0 **** 0.0
24866 C 16.421 56.478 63.028 C 0.0 **** 0.0
24867 H 16.325 56.494 61.942 H 0.0 **** 0.0
24868 H 15.71 55.765 63.444 H 0.0 **** 0.0
24869 H 16.213 57.472 63.424 H 0.0 **** 0.0
24870 H 17.434 56.183 63.299 H 0.0 **** 0.0
24871 C 69.298 19.633 23.157 C 0.0 **** 0.0
24872 H 69.388 20.408 22.397 H 0.0 **** 0.0
24873 H 69.288 18.654 22.678 H 0.0 **** 0.0
24874 H 68.37 19.775 23.712 H 0.0 **** 0.0
24875 H 70.144 19.695 23.841 H 0.0 **** 0.0
24876 C 77.03 41.279 4.63 C 0.0 **** 0.0
24877 H 76.786 41.646 3.633 H 0.0 **** 0.0
24878 H 76.915 42.086 5.353 H 0.0 **** 0.0
24879 H 78.06 40.922 4.643 H 0.0 **** 0.0
24880 H 76.359 40.46 4.889 H 0.0 **** 0.0
24881 C 22.349 15.453 77.662 C 0.0 **** 0.0
24882 H 22.462 15.851 78.671 H 0.0 **** 0.0
24883 H 23.244 15.679 77.081 H 0.0 **** 0.0
24884 H 21.481 15.91 77.187 H 0.0 **** 0.0
24885 H 22.211 14.373 77.712 H 0.0 **** 0.0
24886 C 89.485 45.06 93.602 C 0.0 **** 0.0
24887 H 90.495 44.781 93.903 H 0.0 **** 0.0
24888 H 88.763 44.444 94.138 H 0.0 **** 0.0
24889 H 89.37 44.906 92.529 H 0.0 **** 0.0
24890 H 89.313 46.11 93.838 H 0.0 **** 0.0
24891 C 3.287 45.8 80.827 C 0.0 **** 0.0
24892 H 2.966 45.619 81.853 H 0.0 **** 0.0
24893 H 3.378 46.873 80.659 H 0.0 **** 0.0
24894 H 2.551 45.385 80.138 H 0.0 **** 0.0
24895 H 4.252 45.322 80.659 H 0.0 **** 0.0
24896 C 39.289 62.443 27.68 C 0.0 **** 0.0
24897 H 39.656 62.314 26.663 H 0.0 **** 0.0
24898 H 39.571 63.431 28.045 H 0.0 **** 0.0
24899 H 39.725 61.68 28.324 H 0.0 **** 0.0
24900 H 38.203 62.349 27.689 H 0.0 **** 0.0
24901 C 71.181 67.887 88.352 C 0.0 **** 0.0
24902 H 71.115 68.223 89.386 H 0.0 **** 0.0
24903 H 70.257 68.135 87.83 H 0.0 **** 0.0
24904 H 71.334 66.808 88.329 H 0.0 **** 0.0
24905 H 72.02 68.382 87.862 H 0.0 **** 0.0
24906 C 92.532 90.436 96.296 C 0.0 **** 0.0
24907 H 92.887 90.738 95.311 H 0.0 **** 0.0
24908 H 92.758 91.221 97.019 H 0.0 **** 0.0
24909 H 93.028 89.513 96.594 H 0.0 **** 0.0
24910 H 91.454 90.275 96.26 H 0.0 **** 0.0
24911 C 86.964 59.512 43.847 C 0.0 **** 0.0
24912 H 86.615 58.707 43.2 H 0.0 **** 0.0
24913 H 87.341 59.091 44.779 H 0.0 **** 0.0
24914 H 86.138 60.19 44.062 H 0.0 **** 0.0
24915 H 87.763 60.06 43.346 H 0.0 **** 0.0
24916 C 35.811 95.006 2.019 C 0.0 **** 0.0
24917 H 35.808 95.008 3.109 H 0.0 **** 0.0
24918 H 35.784 93.978 1.658 H 0.0 **** 0.0
24919 H 36.716 95.494 1.658 H 0.0 **** 0.0
24920 H 34.937 95.544 1.653 H 0.0 **** 0.0
24921 C 5.136 82.554 35.459 C 0.0 **** 0.0
24922 H 5.219 81.977 36.38 H 0.0 **** 0.0
24923 H 6.052 82.442 34.877 H 0.0 **** 0.0
24924 H 4.986 83.606 35.702 H 0.0 **** 0.0
24925 H 4.289 82.191 34.878 H 0.0 **** 0.0
24926 C 90.472 32.041 43.814 C 0.0 **** 0.0
24927 H 90.405 31.999 44.901 H 0.0 **** 0.0
24928 H 89.476 32.183 43.394 H 0.0 **** 0.0
24929 H 90.894 31.108 43.44 H 0.0 **** 0.0
24930 H 91.112 32.873 43.522 H 0.0 **** 0.0
24931 C 42.353 47.82 9.27 C 0.0 **** 0.0
24932 H 42.116 47.16 8.437 H 0.0 **** 0.0
24933 H 43.376 47.635 9.601 H 0.0 **** 0.0
24934 H 41.664 47.629 10.093 H 0.0 **** 0.0
24935 H 42.258 48.858 8.95 H 0.0 **** 0.0
24936 C 42.206 64.423 29.191 C 0.0 **** 0.0
24937 H 41.801 65.413 28.985 H 0.0 **** 0.0
24938 H 43.028 64.507 29.902 H 0.0 **** 0.0
24939 H 42.571 63.98 28.264 H 0.0 **** 0.0
24940 H 41.423 63.791 29.612 H 0.0 **** 0.0
24941 C 19.131 57.894 31.775 C 0.0 **** 0.0
24942 H 18.989 58.879 32.22 H 0.0 **** 0.0
24943 H 19.791 57.301 32.409 H 0.0 **** 0.0
24944 H 19.577 58.003 30.787 H 0.0 **** 0.0
24945 H 18.167 57.394 31.685 H 0.0 **** 0.0
24946 C 4.408 61.064 16.573 C 0.0 **** 0.0
24947 H 4.178 62.057 16.958 H 0.0 **** 0.0
24948 H 4.314 61.065 15.486 H 0.0 **** 0.0
24949 H 3.713 60.34 16.997 H 0.0 **** 0.0
24950 H 5.427 60.794 16.849 H 0.0 **** 0.0
24951 C 70.606 15.032 54.463 C 0.0 **** 0.0
24952 H 71.209 15.764 53.924 H 0.0 **** 0.0
24953 H 69.637 14.932 53.975 H 0.0 **** 0.0
24954 H 70.464 15.366 55.491 H 0.0 **** 0.0
24955 H 71.117 14.069 54.46 H 0.0 **** 0.0
24956 C 60.791 87.34 95.461 C 0.0 **** 0.0
24957 H 61.647 87.874 95.05 H 0.0 **** 0.0
24958 H 61.135 86.438 95.968 H 0.0 **** 0.0
24959 H 60.112 87.066 94.654 H 0.0 **** 0.0
24960 H 60.27 87.981 96.173 H 0.0 **** 0.0
24961 C 12.112 92.037 94.509 C 0.0 **** 0.0
24962 H 12.559 92.951 94.118 H 0.0 **** 0.0
24963 H 12.657 91.174 94.125 H 0.0 **** 0.0
24964 H 11.07 91.978 94.194 H 0.0 **** 0.0
24965 H 12.163 92.044 95.598 H 0.0 **** 0.0
24966 C 44.024 16.481 68.706 C 0.0 **** 0.0
24967 H 42.939 16.413 68.625 H 0.0 **** 0.0
24968 H 44.479 15.626 68.208 H 0.0 **** 0.0
24969 H 44.309 16.484 69.758 H 0.0 **** 0.0
24970 H 44.366 17.402 68.235 H 0.0 **** 0.0
24971 C 96.266 96.528 79.287 C 0.0 **** 0.0
24972 H 96.335 97.307 78.528 H 0.0 **** 0.0
24973 H 97.172 96.531 79.895 H 0.0 **** 0.0
24974 H 96.157 95.557 78.803 H 0.0 **** 0.0
24975 H 95.401 96.716 79.923 H 0.0 **** 0.0
24976 C 12.329 18.514 11.905 C 0.0 **** 0.0
24977 H 12.924 17.834 11.295 H 0.0 **** 0.0
24978 H 11.273 18.393 11.659 H 0.0 **** 0.0
24979 H 12.633 19.542 11.704 H 0.0 **** 0.0
24980 H 12.485 18.289 12.959 H 0.0 **** 0.0
24981 C 13.354 27.359 6.314 C 0.0 **** 0.0
24982 H 12.458 27.667 5.774 H 0.0 **** 0.0
24983 H 14.236 27.592 5.716 H 0.0 **** 0.0
24984 H 13.314 26.286 6.5 H 0.0 **** 0.0
24985 H 13.407 27.891 7.263 H 0.0 **** 0.0
24986 C 46.997 92.909 40.282 C 0.0 **** 0.0
24987 H 46.771 92.329 41.177 H 0.0 **** 0.0
24988 H 46.477 92.476 39.428 H 0.0 **** 0.0
24989 H 48.072 92.892 40.101 H 0.0 **** 0.0
24990 H 46.669 93.939 40.424 H 0.0 **** 0.0
24991 C 54.131 8.787 31.538 C 0.0 **** 0.0
24992 H 54.441 8.59 32.564 H 0.0 **** 0.0
24993 H 55.002 8.752 30.883 H 0.0 **** 0.0
24994 H 53.672 9.774 31.481 H 0.0 **** 0.0
24995 H 53.41 8.032 31.225 H 0.0 **** 0.0
24996 C 66.252 12.14 83.985 C 0.0 **** 0.0
24997 H 65.918 12.418 84.984 H 0.0 **** 0.0
24998 H 66.491 13.04 83.418 H 0.0 **** 0.0
24999 H 65.459 11.59 83.477 H 0.0 **** 0.0
25000 H 67.139 11.511 84.06 H 0.0 **** 0.0
25001 C 80.654 16.117 43.973 C 0.0 **** 0.0
25002 H 80.131 15.933 44.912 H 0.0 **** 0.0
25003 H 79.926 16.236 43.17 H 0.0 **** 0.0
25004 H 81.308 15.275 43.75 H 0.0 **** 0.0
25005 H 81.249 17.026 44.062 H 0.0 **** 0.0
25006 C 68.289 27.352 0.851 C 0.0 **** 0.0
25007 H 68.774 28.295 1.103 H 0.0 **** 0.0
25008 H 68.21 26.734 1.745 H 0.0 **** 0.0
25009 H 68.88 26.83 0.098 H 0.0 **** 0.0
25010 H 67.293 27.551 0.457 H 0.0 **** 0.0
25011 C 51.829 44.144 18.307 C 0.0 **** 0.0
25012 H 52.325 44.195 19.276 H 0.0 **** 0.0
25013 H 51.973 43.153 17.877 H 0.0 **** 0.0
25014 H 52.256 44.894 17.641 H 0.0 **** 0.0
25015 H 50.764 44.335 18.434 H 0.0 **** 0.0
25016 C 93.981 57.529 88.797 C 0.0 **** 0.0
25017 H 95.018 57.832 88.655 H 0.0 **** 0.0
25018 H 93.941 56.684 89.486 H 0.0 **** 0.0
25019 H 93.553 57.237 87.838 H 0.0 **** 0.0
25020 H 93.412 58.362 89.211 H 0.0 **** 0.0
25021 C 25.726 89.013 79.872 C 0.0 **** 0.0
25022 H 26.055 88.224 79.197 H 0.0 **** 0.0
25023 H 24.922 89.581 79.403 H 0.0 **** 0.0
25024 H 26.563 89.678 80.088 H 0.0 **** 0.0
25025 H 25.366 88.57 80.801 H 0.0 **** 0.0
25026 C 76.647 74.829 22.918 C 0.0 **** 0.0
25027 H 77.409 75.603 22.834 H 0.0 **** 0.0
25028 H 76.939 74.115 23.688 H 0.0 **** 0.0
25029 H 76.546 74.313 21.963 H 0.0 **** 0.0
25030 H 75.694 75.285 23.187 H 0.0 **** 0.0
25031 C 38.893 75.075 38.025 C 0.0 **** 0.0
25032 H 39.883 75.202 38.463 H 0.0 **** 0.0
25033 H 38.943 74.34 37.222 H 0.0 **** 0.0
25034 H 38.547 76.028 37.625 H 0.0 **** 0.0
25035 H 38.199 74.73 38.792 H 0.0 **** 0.0
25036 C 4.257 72.881 90.494 C 0.0 **** 0.0
25037 H 4.095 72.851 91.571 H 0.0 **** 0.0
25038 H 4.028 71.905 90.065 H 0.0 **** 0.0
25039 H 5.298 73.131 90.29 H 0.0 **** 0.0
25040 H 3.608 73.635 90.05 H 0.0 **** 0.0
25041 C 87.583 62.514 68.81 C 0.0 **** 0.0
25042 H 87.161 63.234 68.109 H 0.0 **** 0.0
25043 H 88.609 62.283 68.52 H 0.0 **** 0.0
25044 H 86.987 61.601 68.797 H 0.0 **** 0.0
25045 H 87.576 62.938 69.814 H 0.0 **** 0.0
25046 C 43.405 76.381 84.547 C 0.0 **** 0.0
25047 H 42.851 76.897 85.331 H 0.0 **** 0.0
25048 H 44.411 76.795 84.481 H 0.0 **** 0.0
25049 H 42.894 76.513 83.594 H 0.0 **** 0.0
25050 H 43.464 75.319 84.784 H 0.0 **** 0.0
25051 C 55.327 63.45 51.414 C 0.0 **** 0.0
25052 H 55.05 63.919 52.358 H 0.0 **** 0.0
25053 H 55.412 62.372 51.554 H 0.0 **** 0.0
25054 H 56.284 63.85 51.077 H 0.0 **** 0.0
25055 H 54.562 63.66 50.666 H 0.0 **** 0.0
25056 C 47.913 38.175 79.335 C 0.0 **** 0.0
25057 H 47.012 37.936 78.771 H 0.0 **** 0.0
25058 H 47.654 38.332 80.383 H 0.0 **** 0.0
25059 H 48.365 39.081 78.932 H 0.0 **** 0.0
25060 H 48.62 37.35 79.255 H 0.0 **** 0.0
25061 C 19.253 44.149 39.263 C 0.0 **** 0.0
25062 H 19.566 44.685 38.368 H 0.0 **** 0.0
25063 H 19.751 43.179 39.298 H 0.0 **** 0.0
25064 H 18.173 44.003 39.241 H 0.0 **** 0.0
25065 H 19.523 44.728 40.146 H 0.0 **** 0.0
25066 C 41.877 63.807 13.213 C 0.0 **** 0.0
25067 H 41.826 63.991 12.14 H 0.0 **** 0.0
25068 H 41.025 63.201 13.519 H 0.0 **** 0.0
25069 H 41.857 64.758 13.746 H 0.0 **** 0.0
25070 H 42.802 63.28 13.447 H 0.0 **** 0.0
25071 C 41.666 56.042 28.638 C 0.0 **** 0.0
25072 H 42.755 56.072 28.652 H 0.0 **** 0.0
25073 H 41.29 56.023 29.661 H 0.0 **** 0.0
25074 H 41.334 55.147 28.111 H 0.0 **** 0.0
25075 H 41.285 56.927 28.127 H 0.0 **** 0.0
25076 C 39.82 48.2 22.551 C 0.0 **** 0.0
25077 H 39.777 48.857 23.419 H 0.0 **** 0.0
25078 H 40.537 47.4 22.736 H 0.0 **** 0.0
25079 H 40.133 48.773 21.678 H 0.0 **** 0.0
25080 H 38.835 47.772 22.37 H 0.0 **** 0.0
25081 C 67.374 45.076 29.396 C 0.0 **** 0.0
25082 H 66.861 45.239 30.344 H 0.0 **** 0.0
25083 H 67.977 45.952 29.154 H 0.0 **** 0.0
25084 H 66.637 44.913 28.609 H 0.0 **** 0.0
25085 H 68.018 44.201 29.477 H 0.0 **** 0.0
25086 C 0.493 22.723 52.663 C 0.0 **** 0.0
25087 H 0.027 23.652 52.336 H 0.0 **** 0.0
25088 H 0.02 22.385 53.586 H 0.0 **** 0.0
25089 H 1.555 22.892 52.839 H 0.0 **** 0.0
25090 H 0.368 21.963 51.892 H 0.0 **** 0.0
25091 C 61.042 57.225 1.048 C 0.0 **** 0.0
25092 H 61.779 57.966 1.356 H 0.0 **** 0.0
25093 H 61.047 56.394 1.754 H 0.0 **** 0.0
25094 H 61.29 56.858 0.052 H 0.0 **** 0.0
25095 H 60.053 57.682 1.032 H 0.0 **** 0.0
25096 C 60.693 24.985 3.347 C 0.0 **** 0.0
25097 H 59.708 25.17 2.918 H 0.0 **** 0.0
25098 H 61.347 24.562 2.584 H 0.0 **** 0.0
25099 H 60.601 24.285 4.177 H 0.0 **** 0.0
25100 H 61.114 25.923 3.708 H 0.0 **** 0.0
25101 C 6.872 41.208 5.918 C 0.0 **** 0.0
25102 H 6.437 42.029 6.487 H 0.0 **** 0.0
25103 H 7.619 40.699 6.527 H 0.0 **** 0.0
25104 H 7.344 41.6 5.017 H 0.0 **** 0.0
25105 H 6.088 40.503 5.64 H 0.0 **** 0.0
25106 C 1.268 10.972 51.061 C 0.0 **** 0.0
25107 H 0.946 10.749 50.044 H 0.0 **** 0.0
25108 H 2.167 11.588 51.031 H 0.0 **** 0.0
25109 H 1.482 10.041 51.586 H 0.0 **** 0.0
25110 H 0.476 11.509 51.582 H 0.0 **** 0.0
25111 C 50.008 9.663 37.456 C 0.0 **** 0.0
25112 H 50.823 10.377 37.344 H 0.0 **** 0.0
25113 H 50.417 8.676 37.674 H 0.0 **** 0.0
25114 H 49.432 9.621 36.531 H 0.0 **** 0.0
25115 H 49.359 9.977 38.274 H 0.0 **** 0.0
25116 C 57.264 23.103 69.273 C 0.0 **** 0.0
25117 H 57.2 23.312 68.205 H 0.0 **** 0.0
25118 H 57.643 22.092 69.424 H 0.0 **** 0.0
25119 H 56.273 23.19 69.719 H 0.0 **** 0.0
25120 H 57.938 23.819 69.743 H 0.0 **** 0.0
25121 C 63.873 29.255 58.62 C 0.0 **** 0.0
25122 H 64.068 28.917 59.638 H 0.0 **** 0.0
25123 H 64.407 30.188 58.439 H 0.0 **** 0.0
25124 H 62.803 29.418 58.49 H 0.0 **** 0.0
25125 H 64.214 28.498 57.915 H 0.0 **** 0.0
25126 C 91.112 8.784 90.907 C 0.0 **** 0.0
25127 H 91.357 9.827 91.107 H 0.0 **** 0.0
25128 H 91.426 8.524 89.896 H 0.0 **** 0.0
25129 H 90.035 8.64 91.002 H 0.0 **** 0.0
25130 H 91.628 8.145 91.624 H 0.0 **** 0.0
25131 C 81.112 7.567 62.571 C 0.0 **** 0.0
25132 H 81.156 7.784 63.638 H 0.0 **** 0.0
25133 H 80.252 6.93 62.365 H 0.0 **** 0.0
25134 H 82.025 7.055 62.267 H 0.0 **** 0.0
25135 H 81.015 8.499 62.014 H 0.0 **** 0.0
25136 C 32.839 49.058 22.432 C 0.0 **** 0.0
25137 H 32.75 48.507 21.496 H 0.0 **** 0.0
25138 H 33.772 49.623 22.433 H 0.0 **** 0.0
25139 H 32.837 48.358 23.268 H 0.0 **** 0.0
25140 H 31.999 49.745 22.531 H 0.0 **** 0.0
25141 C 47.579 2.161 92.58 C 0.0 **** 0.0
25142 H 47.082 1.508 91.862 H 0.0 **** 0.0
25143 H 47.355 1.825 93.592 H 0.0 **** 0.0
25144 H 47.222 3.182 92.448 H 0.0 **** 0.0
25145 H 48.656 2.128 92.415 H 0.0 **** 0.0
25146 C 97.775 36.614 41.909 C 0.0 **** 0.0
25147 H 98.427 36.339 42.738 H 0.0 **** 0.0
25148 H 97.471 35.715 41.373 H 0.0 **** 0.0
25149 H 98.31 37.279 41.231 H 0.0 **** 0.0
25150 H 96.892 37.123 42.296 H 0.0 **** 0.0
25151 C 22.082 32.583 70.015 C 0.0 **** 0.0
25152 H 22.983 32.551 70.627 H 0.0 **** 0.0
25153 H 22.278 33.159 69.11 H 0.0 **** 0.0
25154 H 21.276 33.053 70.578 H 0.0 **** 0.0
25155 H 21.791 31.568 69.744 H 0.0 **** 0.0
25156 C 18.21 64.159 50.366 C 0.0 **** 0.0
25157 H 18.184 63.291 49.707 H 0.0 **** 0.0
25158 H 19.173 64.661 50.267 H 0.0 **** 0.0
25159 H 18.073 63.836 51.398 H 0.0 **** 0.0
25160 H 17.411 64.848 50.092 H 0.0 **** 0.0
25161 C 17.591 60.005 57.81 C 0.0 **** 0.0
25162 H 18.212 59.11 57.859 H 0.0 **** 0.0
25163 H 17.0 60.087 58.722 H 0.0 **** 0.0
25164 H 16.926 59.938 56.95 H 0.0 **** 0.0
25165 H 18.228 60.883 57.709 H 0.0 **** 0.0
25166 C 2.264 74.266 6.867 C 0.0 **** 0.0
25167 H 1.447 74.147 7.579 H 0.0 **** 0.0
25168 H 3.148 74.635 7.388 H 0.0 **** 0.0
25169 H 1.973 74.978 6.096 H 0.0 **** 0.0
25170 H 2.488 73.303 6.408 H 0.0 **** 0.0
25171 C 20.713 75.364 14.217 C 0.0 **** 0.0
25172 H 20.53 75.645 15.254 H 0.0 **** 0.0
25173 H 20.446 74.317 14.072 H 0.0 **** 0.0
25174 H 21.768 75.506 13.984 H 0.0 **** 0.0
25175 H 20.108 75.989 13.559 H 0.0 **** 0.0
25176 C 78.303 6.398 47.79 C 0.0 **** 0.0
25177 H 78.607 5.906 48.714 H 0.0 **** 0.0
25178 H 77.217 6.491 47.769 H 0.0 **** 0.0
25179 H 78.633 5.804 46.937 H 0.0 **** 0.0
25180 H 78.755 7.388 47.74 H 0.0 **** 0.0
25181 C 23.894 54.762 44.087 C 0.0 **** 0.0
25182 H 24.731 54.61 44.768 H 0.0 **** 0.0
25183 H 24.157 54.386 43.099 H 0.0 **** 0.0
25184 H 23.666 55.826 44.023 H 0.0 **** 0.0
25185 H 23.021 54.226 44.46 H 0.0 **** 0.0
25186 C 53.005 69.559 91.29 C 0.0 **** 0.0
25187 H 52.002 69.695 90.884 H 0.0 **** 0.0
25188 H 53.209 70.34 92.023 H 0.0 **** 0.0
25189 H 53.734 69.618 90.483 H 0.0 **** 0.0
25190 H 53.072 68.583 91.77 H 0.0 **** 0.0
25191 C 29.764 25.349 98.461 C 0.0 **** 0.0
25192 H 28.713 25.349 98.751 H 0.0 **** 0.0
25193 H 29.845 25.174 97.388 H 0.0 **** 0.0
25194 H 30.289 24.559 98.999 H 0.0 **** 0.0
25195 H 30.208 26.313 98.707 H 0.0 **** 0.0
25196 C 38.467 34.49 22.883 C 0.0 **** 0.0
25197 H 38.187 35.309 23.546 H 0.0 **** 0.0
25198 H 39.551 34.379 22.881 H 0.0 **** 0.0
25199 H 38.121 34.707 21.872 H 0.0 **** 0.0
25200 H 38.007 33.566 23.234 H 0.0 **** 0.0
25201 C 50.408 58.561 1.02 C 0.0 **** 0.0
25202 H 49.767 59.423 1.206 H 0.0 **** 0.0
25203 H 51.453 58.866 1.079 H 0.0 **** 0.0
25204 H 50.201 58.162 0.026 H 0.0 **** 0.0
25205 H 50.21 57.793 1.767 H 0.0 **** 0.0
25206 C 34.8 8.301 55.832 C 0.0 **** 0.0
25207 H 34.604 9.174 56.453 H 0.0 **** 0.0
25208 H 35.781 7.893 56.078 H 0.0 **** 0.0
25209 H 34.78 8.591 54.781 H 0.0 **** 0.0
25210 H 34.036 7.546 56.015 H 0.0 **** 0.0
25211 C 10.679 76.032 9.038 C 0.0 **** 0.0
25212 H 10.065 76.878 8.728 H 0.0 **** 0.0
25213 H 11.722 76.23 8.787 H 0.0 **** 0.0
25214 H 10.345 75.132 8.522 H 0.0 **** 0.0
25215 H 10.585 75.891 10.115 H 0.0 **** 0.0
25216 C 82.547 63.517 16.818 C 0.0 **** 0.0
25217 H 82.69 63.089 17.81 H 0.0 **** 0.0
25218 H 81.736 62.993 16.31 H 0.0 **** 0.0
25219 H 83.466 63.412 16.241 H 0.0 **** 0.0
25220 H 82.295 64.573 16.912 H 0.0 **** 0.0
25221 C 89.375 47.556 79.758 C 0.0 **** 0.0
25222 H 89.707 47.919 80.731 H 0.0 **** 0.0
25223 H 89.405 46.466 79.748 H 0.0 **** 0.0
25224 H 90.034 47.945 78.982 H 0.0 **** 0.0
25225 H 88.356 47.894 79.572 H 0.0 **** 0.0
25226 C 27.003 53.662 72.201 C 0.0 **** 0.0
25227 H 26.754 53.678 71.14 H 0.0 **** 0.0
25228 H 27.806 54.372 72.397 H 0.0 **** 0.0
25229 H 27.326 52.66 72.484 H 0.0 **** 0.0
25230 H 26.124 53.937 72.784 H 0.0 **** 0.0
25231 C 51.418 80.034 42.956 C 0.0 **** 0.0
25232 H 52.13 79.489 42.335 H 0.0 **** 0.0
25233 H 50.689 80.534 42.319 H 0.0 **** 0.0
25234 H 51.95 80.775 43.552 H 0.0 **** 0.0
25235 H 50.905 79.336 43.618 H 0.0 **** 0.0
25236 C 58.826 16.112 36.481 C 0.0 **** 0.0
25237 H 59.436 15.371 35.965 H 0.0 **** 0.0
25238 H 59.475 16.804 37.02 H 0.0 **** 0.0
25239 H 58.165 15.61 37.187 H 0.0 **** 0.0
25240 H 58.231 16.663 35.754 H 0.0 **** 0.0
25241 C 75.932 63.896 7.331 C 0.0 **** 0.0
25242 H 75.925 64.568 6.473 H 0.0 **** 0.0
25243 H 76.831 64.073 7.923 H 0.0 **** 0.0
25244 H 75.924 62.863 6.983 H 0.0 **** 0.0
25245 H 75.05 64.081 7.944 H 0.0 **** 0.0
25246 C 47.876 63.142 78.409 C 0.0 **** 0.0
25247 H 47.001 62.493 78.424 H 0.0 **** 0.0
25248 H 47.597 64.135 78.762 H 0.0 **** 0.0
25249 H 48.259 63.213 77.391 H 0.0 **** 0.0
25250 H 48.646 62.728 79.059 H 0.0 **** 0.0
25251 C 45.149 30.453 3.418 C 0.0 **** 0.0
25252 H 46.11 30.126 3.815 H 0.0 **** 0.0
25253 H 45.028 30.076 2.402 H 0.0 **** 0.0
25254 H 45.111 31.542 3.408 H 0.0 **** 0.0
25255 H 44.346 30.067 4.047 H 0.0 **** 0.0
25256 C 50.685 36.783 64.874 C 0.0 **** 0.0
25257 H 50.457 36.624 65.928 H 0.0 **** 0.0
25258 H 50.935 37.832 64.711 H 0.0 **** 0.0
25259 H 49.817 36.517 64.271 H 0.0 **** 0.0
25260 H 51.532 36.159 64.588 H 0.0 **** 0.0
25261 C 20.432 60.154 40.904 C 0.0 **** 0.0
25262 H 20.586 59.114 40.615 H 0.0 **** 0.0
25263 H 21.384 60.684 40.875 H 0.0 **** 0.0
25264 H 20.024 60.193 41.914 H 0.0 **** 0.0
25265 H 19.733 60.623 40.211 H 0.0 **** 0.0
25266 C 92.532 29.881 21.446 C 0.0 **** 0.0
25267 H 93.005 29.038 21.949 H 0.0 **** 0.0
25268 H 92.118 30.561 22.19 H 0.0 **** 0.0
25269 H 91.733 29.517 20.8 H 0.0 **** 0.0
25270 H 93.274 30.408 20.845 H 0.0 **** 0.0
25271 C 76.205 45.931 4.348 C 0.0 **** 0.0
25272 H 76.206 45.791 3.267 H 0.0 **** 0.0
25273 H 76.047 46.985 4.577 H 0.0 **** 0.0
25274 H 77.164 45.61 4.756 H 0.0 **** 0.0
25275 H 75.405 45.339 4.791 H 0.0 **** 0.0
25276 C 9.098 35.512 31.536 C 0.0 **** 0.0
25277 H 8.721 34.557 31.903 H 0.0 **** 0.0
25278 H 10.121 35.657 31.886 H 0.0 **** 0.0
25279 H 8.468 36.319 31.909 H 0.0 **** 0.0
25280 H 9.083 35.513 30.446 H 0.0 **** 0.0
25281 C 4.885 7.199 38.389 C 0.0 **** 0.0
25282 H 4.713 7.663 39.36 H 0.0 **** 0.0
25283 H 3.966 6.721 38.047 H 0.0 **** 0.0
25284 H 5.673 6.451 38.477 H 0.0 **** 0.0
25285 H 5.187 7.962 37.671 H 0.0 **** 0.0
25286 C 78.835 91.936 41.68 C 0.0 **** 0.0
25287 H 79.756 91.369 41.541 H 0.0 **** 0.0
25288 H 78.275 91.953 40.744 H 0.0 **** 0.0
25289 H 79.078 92.956 41.976 H 0.0 **** 0.0
25290 H 78.232 91.466 42.456 H 0.0 **** 0.0
25291 C 66.272 22.676 75.626 C 0.0 **** 0.0
25292 H 66.041 23.499 76.302 H 0.0 **** 0.0
25293 H 67.303 22.358 75.781 H 0.0 **** 0.0
25294 H 66.145 23.007 74.595 H 0.0 **** 0.0
25295 H 65.599 21.842 75.825 H 0.0 **** 0.0
25296 C 89.476 23.798 35.008 C 0.0 **** 0.0
25297 H 89.811 23.444 35.983 H 0.0 **** 0.0
25298 H 89.536 22.983 34.286 H 0.0 **** 0.0
25299 H 90.113 24.62 34.682 H 0.0 **** 0.0
25300 H 88.445 24.144 35.082 H 0.0 **** 0.0
25301 C 50.809 10.977 79.144 C 0.0 **** 0.0
25302 H 50.984 10.668 78.113 H 0.0 **** 0.0
25303 H 50.323 11.953 79.153 H 0.0 **** 0.0
25304 H 51.762 11.039 79.67 H 0.0 **** 0.0
25305 H 50.168 10.246 79.638 H 0.0 **** 0.0
25306 C 89.091 56.057 45.817 C 0.0 **** 0.0
25307 H 89.06 56.22 46.894 H 0.0 **** 0.0
25308 H 90.028 55.568 45.551 H 0.0 **** 0.0
25309 H 89.022 57.016 45.303 H 0.0 **** 0.0
25310 H 88.254 55.426 45.521 H 0.0 **** 0.0
25311 C 39.585 90.73 24.862 C 0.0 **** 0.0
25312 H 40.022 91.279 24.028 H 0.0 **** 0.0
25313 H 40.297 90.696 25.687 H 0.0 **** 0.0
25314 H 39.347 89.716 24.544 H 0.0 **** 0.0
25315 H 38.674 91.232 25.19 H 0.0 **** 0.0
25316 C 41.481 38.478 3.205 C 0.0 **** 0.0
25317 H 42.103 37.727 3.692 H 0.0 **** 0.0
25318 H 40.905 39.016 3.958 H 0.0 **** 0.0
25319 H 40.801 37.989 2.507 H 0.0 **** 0.0
25320 H 42.115 39.179 2.662 H 0.0 **** 0.0
25321 C 61.951 71.361 84.688 C 0.0 **** 0.0
25322 H 61.99 72.247 85.322 H 0.0 **** 0.0
25323 H 61.175 70.687 85.051 H 0.0 **** 0.0
25324 H 62.915 70.853 84.714 H 0.0 **** 0.0
25325 H 61.725 71.658 83.664 H 0.0 **** 0.0
25326 C 90.991 25.807 67.94 C 0.0 **** 0.0
25327 H 91.16 25.858 66.865 H 0.0 **** 0.0
25328 H 90.492 26.718 68.272 H 0.0 **** 0.0
25329 H 91.947 25.708 68.454 H 0.0 **** 0.0
25330 H 90.364 24.945 68.169 H 0.0 **** 0.0
25331 C 89.81 58.82 72.961 C 0.0 **** 0.0
25332 H 89.738 58.212 72.06 H 0.0 **** 0.0
25333 H 89.015 59.566 72.961 H 0.0 **** 0.0
25334 H 90.778 59.321 72.984 H 0.0 **** 0.0
25335 H 89.71 58.182 73.839 H 0.0 **** 0.0
25336 C 90.969 75.002 74.344 C 0.0 **** 0.0
25337 H 90.963 75.114 75.428 H 0.0 **** 0.0
25338 H 91.888 74.504 74.036 H 0.0 **** 0.0
25339 H 90.913 75.985 73.877 H 0.0 **** 0.0
25340 H 90.111 74.404 74.036 H 0.0 **** 0.0
25341 C 90.103 90.432 38.793 C 0.0 **** 0.0
25342 H 90.221 90.381 37.711 H 0.0 **** 0.0
25343 H 89.093 90.125 39.063 H 0.0 **** 0.0
25344 H 90.274 91.455 39.129 H 0.0 **** 0.0
25345 H 90.825 89.768 39.269 H 0.0 **** 0.0
25346 C 81.435 6.097 85.548 C 0.0 **** 0.0
25347 H 81.48 6.132 86.637 H 0.0 **** 0.0
25348 H 80.999 7.023 85.173 H 0.0 **** 0.0
25349 H 80.819 5.253 85.237 H 0.0 **** 0.0
25350 H 82.441 5.979 85.146 H 0.0 **** 0.0
25351 C 78.394 44.492 15.561 C 0.0 **** 0.0
25352 H 78.941 44.732 16.473 H 0.0 **** 0.0
25353 H 77.563 43.828 15.799 H 0.0 **** 0.0
25354 H 79.064 43.998 14.856 H 0.0 **** 0.0
25355 H 78.011 45.41 15.115 H 0.0 **** 0.0
25356 C 35.383 37.745 74.629 C 0.0 **** 0.0
25357 H 34.719 37.296 75.367 H 0.0 **** 0.0
25358 H 34.919 37.691 73.643 H 0.0 **** 0.0
25359 H 36.329 37.205 74.615 H 0.0 **** 0.0
25360 H 35.563 38.788 74.889 H 0.0 **** 0.0
25361 C 4.121 39.589 21.255 C 0.0 **** 0.0
25362 H 4.155 38.5 21.27 H 0.0 **** 0.0
25363 H 3.449 39.921 20.463 H 0.0 **** 0.0
25364 H 5.121 39.981 21.07 H 0.0 **** 0.0
25365 H 3.76 39.955 22.216 H 0.0 **** 0.0
25366 C 67.781 86.988 58.882 C 0.0 **** 0.0
25367 H 67.185 86.128 59.187 H 0.0 **** 0.0
25368 H 68.834 86.708 58.85 H 0.0 **** 0.0
25369 H 67.641 87.799 59.597 H 0.0 **** 0.0
25370 H 67.463 87.317 57.892 H 0.0 **** 0.0
25371 C 40.588 21.097 31.26 C 0.0 **** 0.0
25372 H 40.591 20.959 32.341 H 0.0 **** 0.0
25373 H 39.59 21.392 30.934 H 0.0 **** 0.0
25374 H 40.868 20.162 30.774 H 0.0 **** 0.0
25375 H 41.303 21.874 30.991 H 0.0 **** 0.0
25376 C 64.926 38.453 33.481 C 0.0 **** 0.0
25377 H 65.818 38.954 33.104 H 0.0 **** 0.0
25378 H 64.273 39.184 33.957 H 0.0 **** 0.0
25379 H 65.216 37.695 34.208 H 0.0 **** 0.0
25380 H 64.399 37.98 32.652 H 0.0 **** 0.0
25381 C 92.181 51.522 40.974 C 0.0 **** 0.0
25382 H 92.755 51.851 41.84 H 0.0 **** 0.0
25383 H 91.323 50.937 41.308 H 0.0 **** 0.0
25384 H 92.812 50.908 40.332 H 0.0 **** 0.0
25385 H 91.833 52.392 40.417 H 0.0 **** 0.0
25386 C 64.087 77.651 90.985 C 0.0 **** 0.0
25387 H 63.785 78.042 91.957 H 0.0 **** 0.0
25388 H 65.1 77.985 90.758 H 0.0 **** 0.0
25389 H 63.403 78.016 90.218 H 0.0 **** 0.0
25390 H 64.06 76.562 91.008 H 0.0 **** 0.0
25391 C 28.097 41.188 46.984 C 0.0 **** 0.0
25392 H 28.406 40.143 46.973 H 0.0 **** 0.0
25393 H 28.868 41.8 46.515 H 0.0 **** 0.0
25394 H 27.951 41.512 48.014 H 0.0 **** 0.0
25395 H 27.162 41.296 46.433 H 0.0 **** 0.0
25396 C 71.814 25.138 84.506 C 0.0 **** 0.0
25397 H 70.768 25.351 84.284 H 0.0 **** 0.0
25398 H 72.338 26.071 84.713 H 0.0 **** 0.0
25399 H 72.273 24.645 83.649 H 0.0 **** 0.0
25400 H 71.874 24.485 85.377 H 0.0 **** 0.0
25401 C 4.575 42.818 38.801 C 0.0 **** 0.0
25402 H 4.57 42.031 39.554 H 0.0 **** 0.0
25403 H 3.78 42.635 38.077 H 0.0 **** 0.0
25404 H 5.538 42.825 38.289 H 0.0 **** 0.0
25405 H 4.414 43.783 39.283 H 0.0 **** 0.0
25406 C 84.384 61.861 92.317 C 0.0 **** 0.0
25407 H 84.946 61.859 91.383 H 0.0 **** 0.0
25408 H 85.023 61.506 93.125 H 0.0 **** 0.0
25409 H 83.519 61.205 92.221 H 0.0 **** 0.0
25410 H 84.048 62.875 92.536 H 0.0 **** 0.0
25411 C 34.898 96.067 82.435 C 0.0 **** 0.0
25412 H 34.841 96.162 81.351 H 0.0 **** 0.0
25413 H 34.905 97.06 82.886 H 0.0 **** 0.0
25414 H 35.813 95.539 82.706 H 0.0 **** 0.0
25415 H 34.035 95.509 82.797 H 0.0 **** 0.0
25416 C 17.908 57.602 39.911 C 0.0 **** 0.0
25417 H 18.074 57.79 38.851 H 0.0 **** 0.0
25418 H 16.912 57.182 40.054 H 0.0 **** 0.0
25419 H 17.991 58.538 40.464 H 0.0 **** 0.0
25420 H 18.655 56.897 40.276 H 0.0 **** 0.0
25421 C 89.667 44.593 20.806 C 0.0 **** 0.0
25422 H 89.441 45.139 19.891 H 0.0 **** 0.0
25423 H 89.47 43.532 20.655 H 0.0 **** 0.0
25424 H 89.041 44.967 21.616 H 0.0 **** 0.0
25425 H 90.717 44.735 21.064 H 0.0 **** 0.0
25426 C 22.981 10.894 40.172 C 0.0 **** 0.0
25427 H 21.993 10.506 40.421 H 0.0 **** 0.0
25428 H 23.624 10.841 41.05 H 0.0 **** 0.0
25429 H 22.892 11.931 39.848 H 0.0 **** 0.0
25430 H 23.413 10.298 39.368 H 0.0 **** 0.0
25431 C 75.132 35.569 75.714 C 0.0 **** 0.0
25432 H 76.089 35.534 75.192 H 0.0 **** 0.0
25433 H 75.046 36.513 76.252 H 0.0 **** 0.0
25434 H 75.074 34.741 76.42 H 0.0 **** 0.0
25435 H 74.321 35.488 74.99 H 0.0 **** 0.0
25436 C 54.236 30.303 47.319 C 0.0 **** 0.0
25437 H 54.862 29.809 46.575 H 0.0 **** 0.0
25438 H 53.218 30.387 46.939 H 0.0 **** 0.0
25439 H 54.632 31.297 47.524 H 0.0 **** 0.0
25440 H 54.234 29.716 48.238 H 0.0 **** 0.0
25441 C 72.07 74.632 42.784 C 0.0 **** 0.0
25442 H 72.453 75.586 42.42 H 0.0 **** 0.0
25443 H 71.579 74.102 41.968 H 0.0 **** 0.0
25444 H 71.352 74.812 43.585 H 0.0 **** 0.0
25445 H 72.896 74.031 43.164 H 0.0 **** 0.0
25446 C 6.52 38.31 96.407 C 0.0 **** 0.0
25447 H 6.135 38.225 95.391 H 0.0 **** 0.0
25448 H 7.322 37.587 96.553 H 0.0 **** 0.0
25449 H 5.717 38.11 97.117 H 0.0 **** 0.0
25450 H 6.904 39.317 96.567 H 0.0 **** 0.0
25451 C 66.732 35.031 5.202 C 0.0 **** 0.0
25452 H 65.701 35.382 5.154 H 0.0 **** 0.0
25453 H 67.258 35.326 4.293 H 0.0 **** 0.0
25454 H 66.742 33.945 5.292 H 0.0 **** 0.0
25455 H 67.225 35.473 6.067 H 0.0 **** 0.0
25456 C 19.084 57.718 21.204 C 0.0 **** 0.0
25457 H 19.917 57.169 20.764 H 0.0 **** 0.0
25458 H 19.319 57.968 22.238 H 0.0 **** 0.0
25459 H 18.186 57.1 21.175 H 0.0 **** 0.0
25460 H 18.913 58.634 20.638 H 0.0 **** 0.0
25461 C 43.488 53.367 67.979 C 0.0 **** 0.0
25462 H 42.968 54.324 68.004 H 0.0 **** 0.0
25463 H 43.656 53.018 68.998 H 0.0 **** 0.0
25464 H 44.446 53.488 67.473 H 0.0 **** 0.0
25465 H 42.883 52.638 67.44 H 0.0 **** 0.0
25466 C 89.839 38.811 60.276 C 0.0 **** 0.0
25467 H 89.868 39.649 60.972 H 0.0 **** 0.0
25468 H 90.735 38.824 59.655 H 0.0 **** 0.0
25469 H 88.956 38.896 59.642 H 0.0 **** 0.0
25470 H 89.797 37.876 60.834 H 0.0 **** 0.0
25471 C 62.896 72.429 97.382 C 0.0 **** 0.0
25472 H 63.232 72.167 98.386 H 0.0 **** 0.0
25473 H 62.544 71.532 96.872 H 0.0 **** 0.0
25474 H 63.726 72.864 96.824 H 0.0 **** 0.0
25475 H 62.084 73.153 97.448 H 0.0 **** 0.0
25476 C 53.801 82.106 77.463 C 0.0 **** 0.0
25477 H 52.91 81.612 77.85 H 0.0 **** 0.0
25478 H 54.167 82.822 78.199 H 0.0 **** 0.0
25479 H 53.555 82.628 76.539 H 0.0 **** 0.0
25480 H 54.572 81.361 77.266 H 0.0 **** 0.0
25481 C 55.405 52.819 72.414 C 0.0 **** 0.0
25482 H 55.55 52.857 71.334 H 0.0 **** 0.0
25483 H 54.48 53.335 72.674 H 0.0 **** 0.0
25484 H 56.244 53.306 72.91 H 0.0 **** 0.0
25485 H 55.345 51.78 72.736 H 0.0 **** 0.0
25486 C 58.395 50.791 97.097 C 0.0 **** 0.0
25487 H 58.336 50.285 98.061 H 0.0 **** 0.0
25488 H 58.485 51.866 97.256 H 0.0 **** 0.0
25489 H 57.492 50.583 96.523 H 0.0 **** 0.0
25490 H 59.265 50.429 96.549 H 0.0 **** 0.0
25491 C 10.936 18.081 43.031 C 0.0 **** 0.0
25492 H 11.019 18.001 44.115 H 0.0 **** 0.0
25493 H 10.318 18.943 42.776 H 0.0 **** 0.0
25494 H 10.479 17.175 42.633 H 0.0 **** 0.0
25495 H 11.93 18.206 42.599 H 0.0 **** 0.0
25496 C 94.921 61.989 46.054 C 0.0 **** 0.0
25497 H 94.224 61.821 46.875 H 0.0 **** 0.0
25498 H 95.909 61.625 46.336 H 0.0 **** 0.0
25499 H 94.974 63.056 45.835 H 0.0 **** 0.0
25500 H 94.576 61.454 45.169 H 0.0 **** 0.0
25501 C 1.788 37.621 76.677 C 0.0 **** 0.0
25502 H 1.651 37.631 77.758 H 0.0 **** 0.0
25503 H 2.543 36.88 76.413 H 0.0 **** 0.0
25504 H 2.112 38.606 76.342 H 0.0 **** 0.0
25505 H 0.844 37.366 76.194 H 0.0 **** 0.0
25506 C 70.847 53.487 94.968 C 0.0 **** 0.0
25507 H 71.466 52.71 94.521 H 0.0 **** 0.0
25508 H 71.008 53.504 96.046 H 0.0 **** 0.0
25509 H 69.797 53.28 94.761 H 0.0 **** 0.0
25510 H 71.116 54.455 94.545 H 0.0 **** 0.0
25511 C 88.423 43.143 81.08 C 0.0 **** 0.0
25512 H 88.018 43.144 82.092 H 0.0 **** 0.0
25513 H 89.312 43.773 81.044 H 0.0 **** 0.0
25514 H 87.674 43.531 80.39 H 0.0 **** 0.0
25515 H 88.687 42.125 80.795 H 0.0 **** 0.0
25516 C 66.569 96.168 96.734 C 0.0 **** 0.0
25517 H 65.817 95.747 96.066 H 0.0 **** 0.0
25518 H 66.883 97.142 96.36 H 0.0 **** 0.0
25519 H 67.429 95.5 96.779 H 0.0 **** 0.0
25520 H 66.145 96.281 97.732 H 0.0 **** 0.0
25521 C 93.411 63.768 69.66 C 0.0 **** 0.0
25522 H 94.21 63.528 68.958 H 0.0 **** 0.0
25523 H 92.779 64.549 69.237 H 0.0 **** 0.0
25524 H 93.844 64.119 70.597 H 0.0 **** 0.0
25525 H 92.812 62.877 69.847 H 0.0 **** 0.0
25526 C 37.648 30.836 4.141 C 0.0 **** 0.0
25527 H 37.29 30.111 4.872 H 0.0 **** 0.0
25528 H 38.431 30.382 3.533 H 0.0 **** 0.0
25529 H 38.05 31.706 4.66 H 0.0 **** 0.0
25530 H 36.822 31.144 3.5 H 0.0 **** 0.0
25531 C 64.967 52.905 78.554 C 0.0 **** 0.0
25532 H 64.222 53.587 78.144 H 0.0 **** 0.0
25533 H 65.557 52.481 77.74 H 0.0 **** 0.0
25534 H 64.466 52.102 79.095 H 0.0 **** 0.0
25535 H 65.623 53.448 79.234 H 0.0 **** 0.0
25536 C 43.327 98.383 55.63 C 0.0 **** 0.0
25537 H 43.432 99.0 54.737 H 0.0 **** 0.0
25538 H 44.294 97.952 55.889 H 0.0 **** 0.0
25539 H 42.612 97.584 55.436 H 0.0 **** 0.0
25540 H 42.969 98.998 56.455 H 0.0 **** 0.0
25541 C 56.001 8.026 2.354 C 0.0 **** 0.0
25542 H 55.178 8.419 2.95 H 0.0 **** 0.0
25543 H 56.944 8.425 2.729 H 0.0 **** 0.0
25544 H 55.87 8.321 1.313 H 0.0 **** 0.0
25545 H 56.013 6.938 2.424 H 0.0 **** 0.0
25546 C 33.808 70.896 90.611 C 0.0 **** 0.0
25547 H 34.09 70.689 89.579 H 0.0 **** 0.0
25548 H 33.512 69.968 91.1 H 0.0 **** 0.0
25549 H 32.974 71.597 90.626 H 0.0 **** 0.0
25550 H 34.658 71.331 91.139 H 0.0 **** 0.0
25551 C 1.042 94.498 38.439 C 0.0 **** 0.0
25552 H 0.08 94.259 37.986 H 0.0 **** 0.0
25553 H 0.882 95.085 39.343 H 0.0 **** 0.0
25554 H 1.642 95.074 37.734 H 0.0 **** 0.0
25555 H 1.564 93.575 38.691 H 0.0 **** 0.0
25556 C 31.644 78.946 37.732 C 0.0 **** 0.0
25557 H 32.053 79.655 38.451 H 0.0 **** 0.0
25558 H 30.621 79.229 37.483 H 0.0 **** 0.0
25559 H 31.65 77.946 38.164 H 0.0 **** 0.0
25560 H 32.254 78.954 36.828 H 0.0 **** 0.0
25561 C 27.685 65.579 54.5 C 0.0 **** 0.0
25562 H 27.752 66.324 53.707 H 0.0 **** 0.0
25563 H 26.748 65.03 54.404 H 0.0 **** 0.0
25564 H 27.718 66.075 55.469 H 0.0 **** 0.0
25565 H 28.522 64.885 54.417 H 0.0 **** 0.0
25566 C 29.966 54.222 4.333 C 0.0 **** 0.0
25567 H 29.762 53.347 3.716 H 0.0 **** 0.0
25568 H 30.24 55.062 3.693 H 0.0 **** 0.0
25569 H 30.786 54.002 5.016 H 0.0 **** 0.0
25570 H 29.074 54.478 4.906 H 0.0 **** 0.0
25571 C 45.136 40.477 85.114 C 0.0 **** 0.0
25572 H 45.673 39.812 85.79 H 0.0 **** 0.0
25573 H 45.509 41.494 85.233 H 0.0 **** 0.0
25574 H 44.072 40.45 85.347 H 0.0 **** 0.0
25575 H 45.292 40.151 84.085 H 0.0 **** 0.0
25576 C 54.359 80.777 45.285 C 0.0 **** 0.0
25577 H 54.081 79.76 45.563 H 0.0 **** 0.0
25578 H 55.326 81.022 45.725 H 0.0 **** 0.0
25579 H 53.605 81.473 45.652 H 0.0 **** 0.0
25580 H 54.424 80.851 44.199 H 0.0 **** 0.0
25581 C 39.291 2.181 42.574 C 0.0 **** 0.0
25582 H 39.493 2.349 43.632 H 0.0 **** 0.0
25583 H 40.078 2.641 41.977 H 0.0 **** 0.0
25584 H 38.33 2.625 42.314 H 0.0 **** 0.0
25585 H 39.262 1.11 42.375 H 0.0 **** 0.0
25586 C 71.085 58.379 47.357 C 0.0 **** 0.0
25587 H 70.965 58.401 46.273 H 0.0 **** 0.0
25588 H 72.145 58.326 47.604 H 0.0 **** 0.0
25589 H 70.573 57.505 47.76 H 0.0 **** 0.0
25590 H 70.655 59.283 47.788 H 0.0 **** 0.0
25591 C 9.079 15.381 69.235 C 0.0 **** 0.0
25592 H 10.011 14.818 69.183 H 0.0 **** 0.0
25593 H 8.532 15.265 68.299 H 0.0 **** 0.0
25594 H 9.301 16.436 69.399 H 0.0 **** 0.0
25595 H 8.474 15.005 70.06 H 0.0 **** 0.0
25596 C 29.499 98.494 77.633 C 0.0 **** 0.0
25597 H 29.266 98.534 76.569 H 0.0 **** 0.0
25598 H 28.709 98.992 78.196 H 0.0 **** 0.0
25599 H 30.448 98.997 77.815 H 0.0 **** 0.0
25600 H 29.572 97.454 77.95 H 0.0 **** 0.0
25601 C 70.581 64.403 75.343 C 0.0 **** 0.0
25602 H 69.672 64.657 75.888 H 0.0 **** 0.0
25603 H 70.809 63.347 75.49 H 0.0 **** 0.0
25604 H 71.408 65.009 75.714 H 0.0 **** 0.0
25605 H 70.435 64.599 74.281 H 0.0 **** 0.0
25606 C 48.579 15.334 86.8 C 0.0 **** 0.0
25607 H 49.635 15.509 86.593 H 0.0 **** 0.0
25608 H 48.257 15.985 87.613 H 0.0 **** 0.0
25609 H 48.433 14.293 87.089 H 0.0 **** 0.0
25610 H 47.993 15.55 85.907 H 0.0 **** 0.0
25611 C 53.005 79.336 98.073 C 0.0 **** 0.0
25612 H 52.891 79.213 96.996 H 0.0 **** 0.0
25613 H 53.597 78.512 98.472 H 0.0 **** 0.0
25614 H 52.022 79.339 98.544 H 0.0 **** 0.0
25615 H 53.51 80.28 98.279 H 0.0 **** 0.0
25616 C 68.696 16.152 73.433 C 0.0 **** 0.0
25617 H 69.589 16.063 74.051 H 0.0 **** 0.0
25618 H 67.824 15.839 74.007 H 0.0 **** 0.0
25619 H 68.799 15.519 72.552 H 0.0 **** 0.0
25620 H 68.573 17.19 73.121 H 0.0 **** 0.0
25621 C 38.761 73.816 65.85 C 0.0 **** 0.0
25622 H 38.3 74.794 65.709 H 0.0 **** 0.0
25623 H 38.19 73.063 65.305 H 0.0 **** 0.0
25624 H 38.771 73.569 66.911 H 0.0 **** 0.0
25625 H 39.784 73.84 65.473 H 0.0 **** 0.0
25626 C 80.628 12.744 95.47 C 0.0 **** 0.0
25627 H 80.525 12.632 96.549 H 0.0 **** 0.0
25628 H 80.897 13.775 95.236 H 0.0 **** 0.0
25629 H 79.683 12.496 94.987 H 0.0 **** 0.0
25630 H 81.408 12.074 95.108 H 0.0 **** 0.0
25631 C 69.656 7.073 71.296 C 0.0 **** 0.0
25632 H 69.683 7.026 72.384 H 0.0 **** 0.0
25633 H 68.986 6.302 70.916 H 0.0 **** 0.0
25634 H 70.659 6.911 70.9 H 0.0 **** 0.0
25635 H 69.296 8.053 70.984 H 0.0 **** 0.0
25636 C 21.415 73.174 18.654 C 0.0 **** 0.0
25637 H 21.967 74.111 18.582 H 0.0 **** 0.0
25638 H 21.017 73.063 19.662 H 0.0 **** 0.0
25639 H 22.083 72.341 18.433 H 0.0 **** 0.0
25640 H 20.594 73.18 17.937 H 0.0 **** 0.0
25641 C 25.887 39.645 35.928 C 0.0 **** 0.0
25642 H 26.155 40.149 34.999 H 0.0 **** 0.0
25643 H 24.98 40.092 36.335 H 0.0 **** 0.0
25644 H 26.7 39.754 36.647 H 0.0 **** 0.0
25645 H 25.715 38.587 35.731 H 0.0 **** 0.0
25646 C 65.523 71.384 53.066 C 0.0 **** 0.0
25647 H 64.779 71.131 52.31 H 0.0 **** 0.0
25648 H 65.718 72.456 53.038 H 0.0 **** 0.0
25649 H 66.446 70.841 52.863 H 0.0 **** 0.0
25650 H 65.148 71.107 54.051 H 0.0 **** 0.0
25651 C 79.835 15.974 0.674 C 0.0 **** 0.0
25652 H 80.244 15.966 1.684 H 0.0 **** 0.0
25653 H 78.889 16.516 0.67 H 0.0 **** 0.0
25654 H 79.667 14.949 0.342 H 0.0 **** 0.0
25655 H 80.538 16.463 0.0 H 0.0 **** 0.0
25656 C 13.292 1.258 17.078 C 0.0 **** 0.0
25657 H 12.345 1.776 17.229 H 0.0 **** 0.0
25658 H 13.968 1.897 16.509 H 0.0 **** 0.0
25659 H 13.116 0.334 16.527 H 0.0 **** 0.0
25660 H 13.738 1.027 18.045 H 0.0 **** 0.0
25661 C 77.501 12.575 12.965 C 0.0 **** 0.0
25662 H 77.75 12.576 14.026 H 0.0 **** 0.0
25663 H 78.389 12.327 12.384 H 0.0 **** 0.0
25664 H 77.141 13.563 12.676 H 0.0 **** 0.0
25665 H 76.723 11.835 12.775 H 0.0 **** 0.0
25666 C 29.89 33.772 84.444 C 0.0 **** 0.0
25667 H 29.587 34.487 85.209 H 0.0 **** 0.0
25668 H 30.286 32.875 84.922 H 0.0 **** 0.0
25669 H 30.659 34.218 83.814 H 0.0 **** 0.0
25670 H 29.027 33.507 83.833 H 0.0 **** 0.0
25671 C 35.265 27.212 80.796 C 0.0 **** 0.0
25672 H 35.063 26.823 79.798 H 0.0 **** 0.0
25673 H 36.129 26.697 81.218 H 0.0 **** 0.0
25674 H 34.396 27.047 81.432 H 0.0 **** 0.0
25675 H 35.473 28.28 80.734 H 0.0 **** 0.0
25676 C 8.184 19.515 39.661 C 0.0 **** 0.0
25677 H 8.811 18.95 38.971 H 0.0 **** 0.0
25678 H 8.773 20.308 40.121 H 0.0 **** 0.0
25679 H 7.804 18.848 40.435 H 0.0 **** 0.0
25680 H 7.348 19.952 39.116 H 0.0 **** 0.0
25681 C 59.067 31.881 40.047 C 0.0 **** 0.0
25682 H 59.019 31.952 38.96 H 0.0 **** 0.0
25683 H 58.523 30.996 40.377 H 0.0 **** 0.0
25684 H 58.619 32.771 40.489 H 0.0 **** 0.0
25685 H 60.109 31.805 40.359 H 0.0 **** 0.0
25686 C 7.916 9.984 48.423 C 0.0 **** 0.0
25687 H 7.802 10.382 49.431 H 0.0 **** 0.0
25688 H 8.289 8.96 48.477 H 0.0 **** 0.0
25689 H 8.624 10.599 47.867 H 0.0 **** 0.0
25690 H 6.951 9.993 47.917 H 0.0 **** 0.0
25691 C 20.993 12.944 38.298 C 0.0 **** 0.0
25692 H 20.977 12.948 39.387 H 0.0 **** 0.0
25693 H 20.966 13.971 37.931 H 0.0 **** 0.0
25694 H 20.125 12.401 37.924 H 0.0 **** 0.0
25695 H 21.904 12.457 37.949 H 0.0 **** 0.0
25696 C 76.679 82.821 13.024 C 0.0 **** 0.0
25697 H 76.655 82.529 11.974 H 0.0 **** 0.0
25698 H 76.408 81.966 13.645 H 0.0 **** 0.0
25699 H 75.969 83.631 13.192 H 0.0 **** 0.0
25700 H 77.682 83.157 13.285 H 0.0 **** 0.0
25701 C 76.586 46.915 82.516 C 0.0 **** 0.0
25702 H 76.481 46.856 83.6 H 0.0 **** 0.0
25703 H 76.904 47.92 82.237 H 0.0 **** 0.0
25704 H 75.628 46.694 82.046 H 0.0 **** 0.0
25705 H 77.33 46.192 82.183 H 0.0 **** 0.0
25706 C 53.665 80.63 28.644 C 0.0 **** 0.0
25707 H 53.108 79.963 27.986 H 0.0 **** 0.0
25708 H 53.0 81.02 29.415 H 0.0 **** 0.0
25709 H 54.071 81.457 28.062 H 0.0 **** 0.0
25710 H 54.481 80.08 29.112 H 0.0 **** 0.0
25711 C 2.857 56.118 52.28 C 0.0 **** 0.0
25712 H 3.555 56.036 51.446 H 0.0 **** 0.0
25713 H 1.886 55.722 51.981 H 0.0 **** 0.0
25714 H 2.751 57.166 52.562 H 0.0 **** 0.0
25715 H 3.237 55.55 53.128 H 0.0 **** 0.0
25716 C 30.38 44.788 74.784 C 0.0 **** 0.0
25717 H 30.527 44.782 75.864 H 0.0 **** 0.0
25718 H 31.188 45.347 74.311 H 0.0 **** 0.0
25719 H 29.426 45.26 74.551 H 0.0 **** 0.0
25720 H 30.38 43.764 74.411 H 0.0 **** 0.0
25721 C 60.828 69.401 72.73 C 0.0 **** 0.0
25722 H 60.78 68.642 71.949 H 0.0 **** 0.0
25723 H 60.294 69.049 73.613 H 0.0 **** 0.0
25724 H 60.367 70.321 72.37 H 0.0 **** 0.0
25725 H 61.87 69.593 72.986 H 0.0 **** 0.0
25726 C 34.694 6.574 52.31 C 0.0 **** 0.0
25727 H 33.944 6.426 53.087 H 0.0 **** 0.0
25728 H 35.244 7.495 52.507 H 0.0 **** 0.0
25729 H 34.203 6.644 51.34 H 0.0 **** 0.0
25730 H 35.385 5.731 52.308 H 0.0 **** 0.0
25731 C 71.386 75.882 50.512 C 0.0 **** 0.0
25732 H 71.396 75.862 51.602 H 0.0 **** 0.0
25733 H 72.078 76.646 50.157 H 0.0 **** 0.0
25734 H 70.38 76.111 50.162 H 0.0 **** 0.0
25735 H 71.691 74.909 50.128 H 0.0 **** 0.0
25736 C 1.83 89.684 79.823 C 0.0 **** 0.0
25737 H 2.452 89.796 78.935 H 0.0 **** 0.0
25738 H 2.216 88.868 80.436 H 0.0 **** 0.0
25739 H 0.806 89.461 79.524 H 0.0 **** 0.0
25740 H 1.847 90.61 80.398 H 0.0 **** 0.0
25741 C 65.601 76.175 26.508 C 0.0 **** 0.0
25742 H 65.994 75.707 25.606 H 0.0 **** 0.0
25743 H 64.85 76.917 26.235 H 0.0 **** 0.0
25744 H 66.414 76.663 27.048 H 0.0 **** 0.0
25745 H 65.148 75.415 27.144 H 0.0 **** 0.0
25746 C 81.651 37.592 9.788 C 0.0 **** 0.0
25747 H 82.195 37.671 10.73 H 0.0 **** 0.0
25748 H 80.601 37.38 9.992 H 0.0 **** 0.0
25749 H 82.075 36.785 9.19 H 0.0 **** 0.0
25750 H 81.733 38.531 9.242 H 0.0 **** 0.0
25751 C 47.992 42.521 85.465 C 0.0 **** 0.0
25752 H 47.874 42.336 84.397 H 0.0 **** 0.0
25753 H 47.586 41.679 86.026 H 0.0 **** 0.0
25754 H 47.458 43.431 85.737 H 0.0 **** 0.0
25755 H 49.051 42.637 85.698 H 0.0 **** 0.0
25756 C 41.93 87.191 69.354 C 0.0 **** 0.0
25757 H 41.649 87.464 68.337 H 0.0 **** 0.0
25758 H 42.128 86.12 69.401 H 0.0 **** 0.0
25759 H 41.116 87.441 70.035 H 0.0 **** 0.0
25760 H 42.826 87.74 69.643 H 0.0 **** 0.0
25761 C 48.317 74.366 93.075 C 0.0 **** 0.0
25762 H 48.404 75.189 93.784 H 0.0 **** 0.0
25763 H 47.782 74.707 92.188 H 0.0 **** 0.0
25764 H 47.769 73.545 93.537 H 0.0 **** 0.0
25765 H 49.312 74.024 92.79 H 0.0 **** 0.0
25766 C 68.619 53.582 66.798 C 0.0 **** 0.0
25767 H 69.154 54.384 67.307 H 0.0 **** 0.0
25768 H 69.049 52.621 67.081 H 0.0 **** 0.0
25769 H 68.704 53.715 65.72 H 0.0 **** 0.0
25770 H 67.567 53.608 67.085 H 0.0 **** 0.0
25771 C 59.517 40.451 66.545 C 0.0 **** 0.0
25772 H 59.451 40.94 67.517 H 0.0 **** 0.0
25773 H 58.52 40.367 66.112 H 0.0 **** 0.0
25774 H 59.946 39.457 66.667 H 0.0 **** 0.0
25775 H 60.152 41.042 65.885 H 0.0 **** 0.0
25776 C 29.807 52.474 12.523 C 0.0 **** 0.0
25777 H 29.967 52.459 11.445 H 0.0 **** 0.0
25778 H 30.249 51.582 12.968 H 0.0 **** 0.0
25779 H 28.737 52.491 12.73 H 0.0 **** 0.0
25780 H 30.273 53.362 12.948 H 0.0 **** 0.0
25781 C 72.64 71.448 85.959 C 0.0 **** 0.0
25782 H 73.325 72.285 86.097 H 0.0 **** 0.0
25783 H 72.757 71.046 84.952 H 0.0 **** 0.0
25784 H 71.615 71.791 86.097 H 0.0 **** 0.0
25785 H 72.865 70.671 86.689 H 0.0 **** 0.0
25786 C 60.512 0.996 48.0 C 0.0 **** 0.0
25787 H 60.881 1.119 46.981 H 0.0 **** 0.0
25788 H 61.289 0.539 48.614 H 0.0 **** 0.0
25789 H 59.631 0.354 47.991 H 0.0 **** 0.0
25790 H 60.248 1.97 48.411 H 0.0 **** 0.0
25791 C 27.557 59.136 82.566 C 0.0 **** 0.0
25792 H 27.168 59.591 83.477 H 0.0 **** 0.0
25793 H 28.02 59.904 81.946 H 0.0 **** 0.0
25794 H 26.74 58.668 82.016 H 0.0 **** 0.0
25795 H 28.299 58.381 82.826 H 0.0 **** 0.0
25796 C 65.475 57.483 29.261 C 0.0 **** 0.0
25797 H 65.02 57.518 28.271 H 0.0 **** 0.0
25798 H 64.697 57.553 30.021 H 0.0 **** 0.0
25799 H 66.167 58.318 29.372 H 0.0 **** 0.0
25800 H 66.016 56.544 29.38 H 0.0 **** 0.0
25801 C 36.889 2.888 20.94 C 0.0 **** 0.0
25802 H 37.268 3.079 21.944 H 0.0 **** 0.0
25803 H 37.68 2.449 20.331 H 0.0 **** 0.0
25804 H 36.562 3.825 20.49 H 0.0 **** 0.0
25805 H 36.047 2.198 20.995 H 0.0 **** 0.0
25806 C 55.006 18.827 11.915 C 0.0 **** 0.0
25807 H 55.7 18.335 11.233 H 0.0 **** 0.0
25808 H 55.454 18.887 12.907 H 0.0 **** 0.0
25809 H 54.081 18.254 11.967 H 0.0 **** 0.0
25810 H 54.792 19.832 11.551 H 0.0 **** 0.0
25811 C 49.082 73.502 76.075 C 0.0 **** 0.0
25812 H 49.089 73.463 77.164 H 0.0 **** 0.0
25813 H 48.917 74.53 75.75 H 0.0 **** 0.0
25814 H 48.282 72.867 75.694 H 0.0 **** 0.0
25815 H 50.039 73.149 75.692 H 0.0 **** 0.0
25816 C 80.514 9.817 21.362 C 0.0 **** 0.0
25817 H 81.503 10.255 21.229 H 0.0 **** 0.0
25818 H 80.359 9.038 20.615 H 0.0 **** 0.0
25819 H 79.756 10.591 21.243 H 0.0 **** 0.0
25820 H 80.439 9.385 22.36 H 0.0 **** 0.0
25821 C 58.653 28.743 45.963 C 0.0 **** 0.0
25822 H 59.396 29.54 45.962 H 0.0 **** 0.0
25823 H 58.465 28.424 46.989 H 0.0 **** 0.0
25824 H 59.026 27.899 45.383 H 0.0 **** 0.0
25825 H 57.727 29.109 45.52 H 0.0 **** 0.0
25826 C 50.81 49.644 28.152 C 0.0 **** 0.0
25827 H 50.961 49.397 29.203 H 0.0 **** 0.0
25828 H 49.99 50.357 28.061 H 0.0 **** 0.0
25829 H 50.567 48.738 27.597 H 0.0 **** 0.0
25830 H 51.722 50.085 27.748 H 0.0 **** 0.0
25831 C 8.925 65.782 43.161 C 0.0 **** 0.0
25832 H 8.147 65.7 43.92 H 0.0 **** 0.0
25833 H 9.516 66.68 43.343 H 0.0 **** 0.0
25834 H 8.466 65.842 42.175 H 0.0 **** 0.0
25835 H 9.571 64.905 43.208 H 0.0 **** 0.0
25836 C 15.837 66.728 52.375 C 0.0 **** 0.0
25837 H 16.034 65.798 51.84 H 0.0 **** 0.0
25838 H 16.358 66.712 53.333 H 0.0 **** 0.0
25839 H 14.765 66.829 52.545 H 0.0 **** 0.0
25840 H 16.192 67.57 51.781 H 0.0 **** 0.0
25841 C 96.169 85.407 42.444 C 0.0 **** 0.0
25842 H 95.206 85.027 42.785 H 0.0 **** 0.0
25843 H 96.332 86.404 42.853 H 0.0 **** 0.0
25844 H 96.174 85.456 41.355 H 0.0 **** 0.0
25845 H 96.963 84.741 42.781 H 0.0 **** 0.0
25846 C 33.238 5.946 10.405 C 0.0 **** 0.0
25847 H 32.674 5.215 9.826 H 0.0 **** 0.0
25848 H 34.176 5.5 10.737 H 0.0 **** 0.0
25849 H 32.654 6.252 11.272 H 0.0 **** 0.0
25850 H 33.45 6.816 9.784 H 0.0 **** 0.0
25851 C 10.316 43.501 46.724 C 0.0 **** 0.0
25852 H 10.111 42.449 46.921 H 0.0 **** 0.0
25853 H 9.386 44.067 46.77 H 0.0 **** 0.0
25854 H 10.757 43.604 45.732 H 0.0 **** 0.0
25855 H 11.011 43.882 47.472 H 0.0 **** 0.0
25856 C 89.763 81.404 58.564 C 0.0 **** 0.0
25857 H 90.687 80.83 58.635 H 0.0 **** 0.0
25858 H 89.519 81.572 57.515 H 0.0 **** 0.0
25859 H 89.893 82.364 59.065 H 0.0 **** 0.0
25860 H 88.955 80.851 59.042 H 0.0 **** 0.0
25861 C 53.186 67.627 81.125 C 0.0 **** 0.0
25862 H 53.493 68.02 80.155 H 0.0 **** 0.0
25863 H 52.111 67.446 81.12 H 0.0 **** 0.0
25864 H 53.43 68.351 81.903 H 0.0 **** 0.0
25865 H 53.712 66.693 81.32 H 0.0 **** 0.0
25866 C 80.769 87.57 37.101 C 0.0 **** 0.0
25867 H 81.091 87.016 36.22 H 0.0 **** 0.0
25868 H 79.984 87.012 37.613 H 0.0 **** 0.0
25869 H 80.384 88.543 36.797 H 0.0 **** 0.0
25870 H 81.616 87.707 37.773 H 0.0 **** 0.0
25871 C 16.255 84.175 52.315 C 0.0 **** 0.0
25872 H 16.38 83.602 51.395 H 0.0 **** 0.0
25873 H 15.385 83.804 52.857 H 0.0 **** 0.0
25874 H 16.11 85.227 52.07 H 0.0 **** 0.0
25875 H 17.145 84.065 52.935 H 0.0 **** 0.0
25876 C 57.6 11.05 41.414 C 0.0 **** 0.0
25877 H 57.348 10.121 41.926 H 0.0 **** 0.0
25878 H 58.394 11.561 41.959 H 0.0 **** 0.0
25879 H 56.719 11.69 41.368 H 0.0 **** 0.0
25880 H 57.939 10.825 40.402 H 0.0 **** 0.0
25881 C 74.297 81.434 26.955 C 0.0 **** 0.0
25882 H 73.466 81.758 26.329 H 0.0 **** 0.0
25883 H 74.746 80.537 26.527 H 0.0 **** 0.0
25884 H 73.932 81.214 27.958 H 0.0 **** 0.0
25885 H 75.044 82.226 27.006 H 0.0 **** 0.0
25886 C 92.262 15.33 68.745 C 0.0 **** 0.0
25887 H 92.806 15.232 67.806 H 0.0 **** 0.0
25888 H 92.899 15.814 69.485 H 0.0 **** 0.0
25889 H 91.974 14.341 69.103 H 0.0 **** 0.0
25890 H 91.368 15.932 68.585 H 0.0 **** 0.0
25891 C 29.948 82.835 91.477 C 0.0 **** 0.0
25892 H 29.714 82.858 90.413 H 0.0 **** 0.0
25893 H 29.547 83.728 91.956 H 0.0 **** 0.0
25894 H 31.029 82.805 91.61 H 0.0 **** 0.0
25895 H 29.501 81.949 91.928 H 0.0 **** 0.0
25896 C 57.888 81.56 2.717 C 0.0 **** 0.0
25897 H 57.991 82.405 3.398 H 0.0 **** 0.0
25898 H 58.857 81.332 2.273 H 0.0 **** 0.0
25899 H 57.178 81.813 1.929 H 0.0 **** 0.0
25900 H 57.526 80.692 3.267 H 0.0 **** 0.0
25901 C 43.53 34.139 72.876 C 0.0 **** 0.0
25902 H 44.398 34.394 73.484 H 0.0 **** 0.0
25903 H 42.899 33.437 73.422 H 0.0 **** 0.0
25904 H 43.861 33.682 71.944 H 0.0 **** 0.0
25905 H 42.963 35.043 72.657 H 0.0 **** 0.0
25906 C 78.061 24.268 74.331 C 0.0 **** 0.0
25907 H 77.249 23.549 74.437 H 0.0 **** 0.0
25908 H 77.672 25.278 74.464 H 0.0 **** 0.0
25909 H 78.5 24.176 73.337 H 0.0 **** 0.0
25910 H 78.823 24.07 75.084 H 0.0 **** 0.0
25911 C 49.116 49.804 49.22 C 0.0 **** 0.0
25912 H 50.007 50.293 49.613 H 0.0 **** 0.0
25913 H 49.129 48.749 49.497 H 0.0 **** 0.0
25914 H 49.1 49.894 48.134 H 0.0 **** 0.0
25915 H 48.228 50.278 49.638 H 0.0 **** 0.0
25916 C 18.267 75.949 11.637 C 0.0 **** 0.0
25917 H 18.178 76.489 12.579 H 0.0 **** 0.0
25918 H 17.424 75.265 11.529 H 0.0 **** 0.0
25919 H 19.198 75.383 11.629 H 0.0 **** 0.0
25920 H 18.266 76.659 10.81 H 0.0 **** 0.0
25921 C 13.032 18.296 60.285 C 0.0 **** 0.0
25922 H 12.786 17.364 59.775 H 0.0 **** 0.0
25923 H 12.416 19.102 59.886 H 0.0 **** 0.0
25924 H 14.085 18.529 60.127 H 0.0 **** 0.0
25925 H 12.84 18.186 61.353 H 0.0 **** 0.0
25926 C 91.97 48.697 47.718 C 0.0 **** 0.0
25927 H 92.809 48.079 48.035 H 0.0 **** 0.0
25928 H 92.165 49.09 46.72 H 0.0 **** 0.0
25929 H 91.844 49.525 48.416 H 0.0 **** 0.0
25930 H 91.062 48.095 47.7 H 0.0 **** 0.0
25931 C 75.016 90.89 11.345 C 0.0 **** 0.0
25932 H 75.261 90.155 12.111 H 0.0 **** 0.0
25933 H 74.532 90.391 10.505 H 0.0 **** 0.0
25934 H 75.929 91.377 11.003 H 0.0 **** 0.0
25935 H 74.34 91.637 11.762 H 0.0 **** 0.0
25936 C 57.589 9.983 12.618 C 0.0 **** 0.0
25937 H 57.99 10.992 12.709 H 0.0 **** 0.0
25938 H 58.407 9.263 12.635 H 0.0 **** 0.0
25939 H 57.044 9.892 11.678 H 0.0 **** 0.0
25940 H 56.913 9.784 13.45 H 0.0 **** 0.0
25941 C 86.166 2.386 79.203 C 0.0 **** 0.0
25942 H 85.954 1.446 79.713 H 0.0 **** 0.0
25943 H 86.613 2.178 78.231 H 0.0 **** 0.0
25944 H 86.857 2.977 79.803 H 0.0 **** 0.0
25945 H 85.238 2.941 79.065 H 0.0 **** 0.0
25946 C 8.405 16.532 21.492 C 0.0 **** 0.0
25947 H 8.252 16.449 20.416 H 0.0 **** 0.0
25948 H 7.522 16.164 22.013 H 0.0 **** 0.0
25949 H 8.574 17.576 21.755 H 0.0 **** 0.0
25950 H 9.273 15.939 21.782 H 0.0 **** 0.0
25951 C 88.81 6.852 30.647 C 0.0 **** 0.0
25952 H 87.821 7.235 30.398 H 0.0 **** 0.0
25953 H 89.248 6.377 29.769 H 0.0 **** 0.0
25954 H 88.725 6.122 31.452 H 0.0 **** 0.0
25955 H 89.447 7.676 30.97 H 0.0 **** 0.0
25956 C 75.313 51.08 22.447 C 0.0 **** 0.0
25957 H 74.962 50.871 21.437 H 0.0 **** 0.0
25958 H 75.456 50.142 22.984 H 0.0 **** 0.0
25959 H 74.576 51.69 22.969 H 0.0 **** 0.0
25960 H 76.26 51.619 22.398 H 0.0 **** 0.0
25961 C 49.214 60.093 48.988 C 0.0 **** 0.0
25962 H 49.34 60.848 49.764 H 0.0 **** 0.0
25963 H 50.179 59.639 48.762 H 0.0 **** 0.0
25964 H 48.812 60.56 48.089 H 0.0 **** 0.0
25965 H 48.524 59.325 49.338 H 0.0 **** 0.0
25966 C 91.815 70.341 68.983 C 0.0 **** 0.0
25967 H 91.808 71.431 68.997 H 0.0 **** 0.0
25968 H 90.989 69.965 69.587 H 0.0 **** 0.0
25969 H 92.758 69.979 69.392 H 0.0 **** 0.0
25970 H 91.706 69.991 67.957 H 0.0 **** 0.0
25971 C 20.685 34.622 41.937 C 0.0 **** 0.0
25972 H 20.852 34.604 40.86 H 0.0 **** 0.0
25973 H 21.164 35.504 42.363 H 0.0 **** 0.0
25974 H 21.109 33.724 42.386 H 0.0 **** 0.0
25975 H 19.614 34.657 42.137 H 0.0 **** 0.0
25976 C 28.411 23.585 36.272 C 0.0 **** 0.0
25977 H 28.314 23.008 37.191 H 0.0 **** 0.0
25978 H 27.733 23.185 35.518 H 0.0 **** 0.0
25979 H 29.437 23.522 35.91 H 0.0 **** 0.0
25980 H 28.159 24.627 36.47 H 0.0 **** 0.0
25981 C 5.911 14.351 79.876 C 0.0 **** 0.0
25982 H 6.597 14.736 80.631 H 0.0 **** 0.0
25983 H 4.887 14.435 80.238 H 0.0 **** 0.0
25984 H 6.142 13.305 79.676 H 0.0 **** 0.0
25985 H 6.021 14.929 78.958 H 0.0 **** 0.0
25986 C 77.458 9.579 54.115 C 0.0 **** 0.0
25987 H 77.077 9.524 55.134 H 0.0 **** 0.0
25988 H 77.121 10.506 53.651 H 0.0 **** 0.0
25989 H 77.085 8.729 53.542 H 0.0 **** 0.0
25990 H 78.547 9.555 54.133 H 0.0 **** 0.0
25991 C 34.997 13.988 39.517 C 0.0 **** 0.0
25992 H 34.824 14.343 40.533 H 0.0 **** 0.0
25993 H 34.449 13.059 39.359 H 0.0 **** 0.0
25994 H 36.063 13.811 39.372 H 0.0 **** 0.0
25995 H 34.653 14.739 38.807 H 0.0 **** 0.0
25996 C 88.75 94.69 63.555 C 0.0 **** 0.0
25997 H 88.267 93.784 63.19 H 0.0 **** 0.0
25998 H 88.056 95.528 63.48 H 0.0 **** 0.0
25999 H 89.635 94.897 62.953 H 0.0 **** 0.0
26000 H 89.042 94.552 64.596 H 0.0 **** 0.0
26001 C 26.755 71.553 96.273 C 0.0 **** 0.0
26002 H 27.719 72.061 96.305 H 0.0 **** 0.0
26003 H 26.538 71.25 95.248 H 0.0 **** 0.0
26004 H 25.976 72.229 96.625 H 0.0 **** 0.0
26005 H 26.788 70.672 96.914 H 0.0 **** 0.0
26006 C 34.506 39.176 60.476 C 0.0 **** 0.0
26007 H 35.072 39.061 61.401 H 0.0 **** 0.0
26008 H 33.734 39.933 60.614 H 0.0 **** 0.0
26009 H 34.041 38.226 60.214 H 0.0 **** 0.0
26010 H 35.178 39.484 59.675 H 0.0 **** 0.0
26011 C 17.229 30.937 91.848 C 0.0 **** 0.0
26012 H 16.546 30.853 91.003 H 0.0 **** 0.0
26013 H 17.331 29.964 92.329 H 0.0 **** 0.0
26014 H 16.835 31.658 92.563 H 0.0 **** 0.0
26015 H 18.204 31.271 91.494 H 0.0 **** 0.0
26016 C 93.915 78.861 33.432 C 0.0 **** 0.0
26017 H 93.613 78.181 34.228 H 0.0 **** 0.0
26018 H 94.739 78.421 32.871 H 0.0 **** 0.0
26019 H 94.235 79.809 33.866 H 0.0 **** 0.0
26020 H 93.071 79.034 32.764 H 0.0 **** 0.0
26021 C 17.166 74.496 86.473 C 0.0 **** 0.0
26022 H 18.151 74.616 86.926 H 0.0 **** 0.0
26023 H 17.253 73.889 85.572 H 0.0 **** 0.0
26024 H 16.763 75.475 86.215 H 0.0 **** 0.0
26025 H 16.499 74.003 87.181 H 0.0 **** 0.0
26026 C 32.726 35.667 46.851 C 0.0 **** 0.0
26027 H 32.831 34.975 47.687 H 0.0 **** 0.0
26028 H 31.707 35.617 46.464 H 0.0 **** 0.0
26029 H 33.428 35.393 46.063 H 0.0 **** 0.0
26030 H 32.937 36.681 47.189 H 0.0 **** 0.0
26031 C 7.31 18.758 91.209 C 0.0 **** 0.0
26032 H 6.952 18.878 92.231 H 0.0 **** 0.0
26033 H 8.211 18.144 91.209 H 0.0 **** 0.0
26034 H 7.537 19.737 90.787 H 0.0 **** 0.0
26035 H 6.54 18.273 90.609 H 0.0 **** 0.0
26036 C 88.001 90.243 44.977 C 0.0 **** 0.0
26037 H 88.954 90.381 45.488 H 0.0 **** 0.0
26038 H 88.172 90.173 43.903 H 0.0 **** 0.0
26039 H 87.351 91.092 45.187 H 0.0 **** 0.0
26040 H 87.529 89.327 45.331 H 0.0 **** 0.0
26041 C 78.63 4.971 11.077 C 0.0 **** 0.0
26042 H 77.564 4.761 11.162 H 0.0 **** 0.0
26043 H 79.017 4.516 10.165 H 0.0 **** 0.0
26044 H 79.152 4.557 11.939 H 0.0 **** 0.0
26045 H 78.786 6.049 11.04 H 0.0 **** 0.0
26046 C 36.068 32.318 93.709 C 0.0 **** 0.0
26047 H 36.51 32.761 92.816 H 0.0 **** 0.0
26048 H 34.981 32.327 93.619 H 0.0 **** 0.0
26049 H 36.365 32.895 94.585 H 0.0 **** 0.0
26050 H 36.416 31.291 93.815 H 0.0 **** 0.0
26051 C 55.52 44.495 76.903 C 0.0 **** 0.0
26052 H 55.687 43.799 77.724 H 0.0 **** 0.0
26053 H 55.683 45.515 77.252 H 0.0 **** 0.0
26054 H 54.496 44.394 76.543 H 0.0 **** 0.0
26055 H 56.213 44.273 76.092 H 0.0 **** 0.0
26056 C 29.291 34.829 56.293 C 0.0 **** 0.0
26057 H 30.252 35.122 55.871 H 0.0 **** 0.0
26058 H 28.608 34.558 55.487 H 0.0 **** 0.0
26059 H 28.873 35.662 56.859 H 0.0 **** 0.0
26060 H 29.43 33.974 56.954 H 0.0 **** 0.0
26061 C 44.631 59.305 31.499 C 0.0 **** 0.0
26062 H 44.008 59.977 30.908 H 0.0 **** 0.0
26063 H 44.367 59.399 32.553 H 0.0 **** 0.0
26064 H 45.68 59.567 31.362 H 0.0 **** 0.0
26065 H 44.467 58.278 31.173 H 0.0 **** 0.0
26066 C 41.912 91.271 83.918 C 0.0 **** 0.0
26067 H 41.563 92.3 84.004 H 0.0 **** 0.0
26068 H 42.923 91.195 84.32 H 0.0 **** 0.0
26069 H 41.915 90.974 82.869 H 0.0 **** 0.0
26070 H 41.248 90.614 84.48 H 0.0 **** 0.0
26071 C 39.318 67.888 37.778 C 0.0 **** 0.0
26072 H 38.956 66.873 37.618 H 0.0 **** 0.0
26073 H 39.686 68.295 36.836 H 0.0 **** 0.0
26074 H 40.127 67.874 38.508 H 0.0 **** 0.0
26075 H 38.504 68.51 38.15 H 0.0 **** 0.0
26076 C 66.173 41.106 51.422 C 0.0 **** 0.0
26077 H 66.079 41.04 52.506 H 0.0 **** 0.0
26078 H 67.213 41.299 51.159 H 0.0 **** 0.0
26079 H 65.547 41.917 51.052 H 0.0 **** 0.0
26080 H 65.853 40.166 50.972 H 0.0 **** 0.0
26081 C 10.169 81.449 97.506 C 0.0 **** 0.0
26082 H 10.508 81.538 96.474 H 0.0 **** 0.0
26083 H 9.221 80.909 97.531 H 0.0 **** 0.0
26084 H 10.032 82.443 97.93 H 0.0 **** 0.0
26085 H 10.913 80.904 98.087 H 0.0 **** 0.0
26086 C 55.52 97.598 56.228 C 0.0 **** 0.0
26087 H 55.512 97.515 57.315 H 0.0 **** 0.0
26088 H 55.2 98.598 55.937 H 0.0 **** 0.0
26089 H 54.84 96.86 55.803 H 0.0 **** 0.0
26090 H 56.53 97.418 55.858 H 0.0 **** 0.0
26091 C 36.977 71.779 23.195 C 0.0 **** 0.0
26092 H 37.588 72.476 22.621 H 0.0 **** 0.0
26093 H 36.813 70.874 22.61 H 0.0 **** 0.0
26094 H 36.018 72.242 23.426 H 0.0 **** 0.0
26095 H 37.491 71.525 24.122 H 0.0 **** 0.0
26096 C 51.621 33.875 8.129 C 0.0 **** 0.0
26097 H 50.991 34.748 7.959 H 0.0 **** 0.0
26098 H 51.874 33.417 7.173 H 0.0 **** 0.0
26099 H 51.084 33.155 8.747 H 0.0 **** 0.0
26100 H 52.535 34.181 8.639 H 0.0 **** 0.0
26101 C 28.187 45.065 56.094 C 0.0 **** 0.0
26102 H 28.329 44.852 55.034 H 0.0 **** 0.0
26103 H 28.356 46.126 56.277 H 0.0 **** 0.0
26104 H 28.894 44.477 56.68 H 0.0 **** 0.0
26105 H 27.169 44.803 56.383 H 0.0 **** 0.0
26106 C 89.337 53.878 97.085 C 0.0 **** 0.0
26107 H 89.644 54.02 96.049 H 0.0 **** 0.0
26108 H 90.218 53.714 97.706 H 0.0 **** 0.0
26109 H 88.678 53.012 97.153 H 0.0 **** 0.0
26110 H 88.807 54.765 97.431 H 0.0 **** 0.0
26111 C 86.694 0.72 7.102 C 0.0 **** 0.0
26112 H 87.496 1.458 7.14 H 0.0 **** 0.0
26113 H 86.83 0.081 6.229 H 0.0 **** 0.0
26114 H 85.734 1.231 7.032 H 0.0 **** 0.0
26115 H 86.717 0.111 8.006 H 0.0 **** 0.0
26116 C 69.567 63.081 14.731 C 0.0 **** 0.0
26117 H 69.287 62.83 13.708 H 0.0 **** 0.0
26118 H 70.515 63.62 14.726 H 0.0 **** 0.0
26119 H 69.672 62.166 15.313 H 0.0 **** 0.0
26120 H 68.794 63.708 15.176 H 0.0 **** 0.0
26121 C 9.094 43.8 93.183 C 0.0 **** 0.0
26122 H 9.802 44.349 93.804 H 0.0 **** 0.0
26123 H 8.306 43.385 93.811 H 0.0 **** 0.0
26124 H 9.613 42.991 92.669 H 0.0 **** 0.0
26125 H 8.656 44.475 92.448 H 0.0 **** 0.0
26126 C 82.912 33.743 49.72 C 0.0 **** 0.0
26127 H 82.52 33.139 48.902 H 0.0 **** 0.0
26128 H 83.993 33.839 49.615 H 0.0 **** 0.0
26129 H 82.68 33.262 50.67 H 0.0 **** 0.0
26130 H 82.455 34.733 49.692 H 0.0 **** 0.0
26131 C 39.4 78.381 7.157 C 0.0 **** 0.0
26132 H 39.896 79.06 7.85 H 0.0 **** 0.0
26133 H 40.085 78.122 6.349 H 0.0 **** 0.0
26134 H 38.517 78.868 6.742 H 0.0 **** 0.0
26135 H 39.102 77.476 7.686 H 0.0 **** 0.0
26136 C 9.706 90.367 1.883 C 0.0 **** 0.0
26137 H 9.772 90.123 0.823 H 0.0 **** 0.0
26138 H 8.717 90.772 2.101 H 0.0 **** 0.0
26139 H 10.465 91.108 2.133 H 0.0 **** 0.0
26140 H 9.869 89.466 2.474 H 0.0 **** 0.0
26141 C 36.879 41.214 46.578 C 0.0 **** 0.0
26142 H 36.211 41.576 45.796 H 0.0 **** 0.0
26143 H 36.868 41.912 47.415 H 0.0 **** 0.0
26144 H 37.892 41.137 46.182 H 0.0 **** 0.0
26145 H 36.545 40.234 46.916 H 0.0 **** 0.0
26146 C 96.181 4.361 98.202 C 0.0 **** 0.0
26147 H 97.205 4.087 98.453 H 0.0 **** 0.0
26148 H 96.132 4.666 97.156 H 0.0 **** 0.0
26149 H 95.861 5.188 98.837 H 0.0 **** 0.0
26150 H 95.526 3.505 98.363 H 0.0 **** 0.0
26151 C 35.353 62.159 52.4 C 0.0 **** 0.0
26152 H 35.505 61.097 52.21 H 0.0 **** 0.0
26153 H 35.236 62.684 51.451 H 0.0 **** 0.0
26154 H 36.216 62.56 52.933 H 0.0 **** 0.0
26155 H 34.457 62.296 53.004 H 0.0 **** 0.0
26156 C 84.117 52.278 60.787 C 0.0 **** 0.0
26157 H 84.087 51.295 61.258 H 0.0 **** 0.0
26158 H 84.982 52.83 61.155 H 0.0 **** 0.0
26159 H 83.206 52.825 61.031 H 0.0 **** 0.0
26160 H 84.192 52.161 59.706 H 0.0 **** 0.0
26161 C 14.42 65.657 10.676 C 0.0 **** 0.0
26162 H 14.442 65.558 9.591 H 0.0 **** 0.0
26163 H 14.053 64.73 11.117 H 0.0 **** 0.0
26164 H 13.758 66.478 10.952 H 0.0 **** 0.0
26165 H 15.425 65.862 11.042 H 0.0 **** 0.0
26166 C 7.289 90.729 58.131 C 0.0 **** 0.0
26167 H 7.146 91.052 59.163 H 0.0 **** 0.0
26168 H 6.455 90.094 57.831 H 0.0 **** 0.0
26169 H 8.22 90.168 58.052 H 0.0 **** 0.0
26170 H 7.334 91.602 57.48 H 0.0 **** 0.0
26171 C 95.636 97.787 37.008 C 0.0 **** 0.0
26172 H 96.351 98.579 36.782 H 0.0 **** 0.0
26173 H 94.736 98.224 37.442 H 0.0 **** 0.0
26174 H 96.08 97.09 37.719 H 0.0 **** 0.0
26175 H 95.379 97.258 36.091 H 0.0 **** 0.0
26176 C 93.413 1.188 69.596 C 0.0 **** 0.0
26177 H 93.049 1.156 68.57 H 0.0 **** 0.0
26178 H 92.757 1.82 70.195 H 0.0 **** 0.0
26179 H 94.424 1.596 69.61 H 0.0 **** 0.0
26180 H 93.423 0.179 70.009 H 0.0 **** 0.0
26181 C 32.965 74.58 76.597 C 0.0 **** 0.0
26182 H 32.953 74.533 75.508 H 0.0 **** 0.0
26183 H 32.101 74.046 76.994 H 0.0 **** 0.0
26184 H 32.926 75.622 76.916 H 0.0 **** 0.0
26185 H 33.88 74.12 76.971 H 0.0 **** 0.0
26186 C 49.888 56.529 80.752 C 0.0 **** 0.0
26187 H 50.313 57.524 80.617 H 0.0 **** 0.0
26188 H 50.362 56.045 81.607 H 0.0 **** 0.0
26189 H 50.062 55.935 79.855 H 0.0 **** 0.0
26190 H 48.816 56.613 80.93 H 0.0 **** 0.0
26191 C 77.738 51.191 34.32 C 0.0 **** 0.0
26192 H 78.439 51.24 35.154 H 0.0 **** 0.0
26193 H 77.097 52.073 34.333 H 0.0 **** 0.0
26194 H 77.125 50.295 34.413 H 0.0 **** 0.0
26195 H 78.292 51.157 33.382 H 0.0 **** 0.0
26196 C 33.261 37.424 66.257 C 0.0 **** 0.0
26197 H 33.815 37.776 65.387 H 0.0 **** 0.0
26198 H 33.96 37.055 67.008 H 0.0 **** 0.0
26199 H 32.589 36.62 65.958 H 0.0 **** 0.0
26200 H 32.68 38.247 66.674 H 0.0 **** 0.0
26201 C 65.965 44.402 32.715 C 0.0 **** 0.0
26202 H 66.556 45.313 32.615 H 0.0 **** 0.0
26203 H 66.314 43.662 31.995 H 0.0 **** 0.0
26204 H 64.916 44.628 32.525 H 0.0 **** 0.0
26205 H 66.075 44.008 33.725 H 0.0 **** 0.0
26206 C 11.222 90.551 42.976 C 0.0 **** 0.0
26207 H 10.569 91.335 42.593 H 0.0 **** 0.0
26208 H 11.122 90.493 44.06 H 0.0 **** 0.0
26209 H 12.255 90.781 42.717 H 0.0 **** 0.0
26210 H 10.94 89.595 42.533 H 0.0 **** 0.0
26211 C 97.318 12.953 36.68 C 0.0 **** 0.0
26212 H 97.303 13.013 35.592 H 0.0 **** 0.0
26213 H 97.434 13.953 37.098 H 0.0 **** 0.0
26214 H 98.153 12.327 36.997 H 0.0 **** 0.0
26215 H 96.383 12.517 37.032 H 0.0 **** 0.0
26216 C 13.555 96.069 54.194 C 0.0 **** 0.0
26217 H 13.763 95.961 53.129 H 0.0 **** 0.0
26218 H 13.019 95.19 54.55 H 0.0 **** 0.0
26219 H 12.945 96.958 54.356 H 0.0 **** 0.0
26220 H 14.494 96.168 54.738 H 0.0 **** 0.0
26221 C 10.466 6.241 3.371 C 0.0 **** 0.0
26222 H 9.916 6.098 4.301 H 0.0 **** 0.0
26223 H 11.247 5.485 3.291 H 0.0 **** 0.0
26224 H 10.918 7.233 3.365 H 0.0 **** 0.0
26225 H 9.782 6.148 2.527 H 0.0 **** 0.0
26226 C 85.386 4.472 8.537 C 0.0 **** 0.0
26227 H 84.416 4.17 8.142 H 0.0 **** 0.0
26228 H 85.963 4.958 7.751 H 0.0 **** 0.0
26229 H 85.923 3.592 8.891 H 0.0 **** 0.0
26230 H 85.241 5.166 9.365 H 0.0 **** 0.0
26231 C 91.069 8.642 17.641 C 0.0 **** 0.0
26232 H 91.093 8.624 16.552 H 0.0 **** 0.0
26233 H 91.44 9.603 17.997 H 0.0 **** 0.0
26234 H 91.699 7.842 18.031 H 0.0 **** 0.0
26235 H 90.045 8.497 17.984 H 0.0 **** 0.0
26236 C 61.862 35.157 70.325 C 0.0 **** 0.0
26237 H 61.912 34.507 71.199 H 0.0 **** 0.0
26238 H 62.501 34.757 69.538 H 0.0 **** 0.0
26239 H 62.201 36.156 70.596 H 0.0 **** 0.0
26240 H 60.833 35.206 69.968 H 0.0 **** 0.0
26241 C 82.385 30.809 63.317 C 0.0 **** 0.0
26242 H 81.481 31.078 63.865 H 0.0 **** 0.0
26243 H 83.206 30.666 64.02 H 0.0 **** 0.0
26244 H 82.638 31.607 62.62 H 0.0 **** 0.0
26245 H 82.213 29.885 62.765 H 0.0 **** 0.0
26246 C 26.411 82.732 47.216 C 0.0 **** 0.0
26247 H 27.174 82.357 47.898 H 0.0 **** 0.0
26248 H 25.636 81.975 47.087 H 0.0 **** 0.0
26249 H 26.865 82.956 46.251 H 0.0 **** 0.0
26250 H 25.968 83.638 47.629 H 0.0 **** 0.0
26251 C 52.225 30.584 33.937 C 0.0 **** 0.0
26252 H 51.233 30.415 34.355 H 0.0 **** 0.0
26253 H 52.366 29.945 33.065 H 0.0 **** 0.0
26254 H 52.98 30.348 34.687 H 0.0 **** 0.0
26255 H 52.32 31.629 33.642 H 0.0 **** 0.0
26256 C 59.912 50.264 25.033 C 0.0 **** 0.0
26257 H 60.009 49.701 25.961 H 0.0 **** 0.0
26258 H 60.426 51.22 25.132 H 0.0 **** 0.0
26259 H 58.856 50.438 24.823 H 0.0 **** 0.0
26260 H 60.355 49.695 24.216 H 0.0 **** 0.0
26261 C 86.099 67.884 35.612 C 0.0 **** 0.0
26262 H 87.141 68.125 35.402 H 0.0 **** 0.0
26263 H 86.003 66.813 35.792 H 0.0 **** 0.0
26264 H 85.482 68.166 34.759 H 0.0 **** 0.0
26265 H 85.771 68.432 36.495 H 0.0 **** 0.0
26266 C 28.147 43.159 25.548 C 0.0 **** 0.0
26267 H 27.229 43.348 24.992 H 0.0 **** 0.0
26268 H 28.124 43.713 26.487 H 0.0 **** 0.0
26269 H 29.003 43.482 24.956 H 0.0 **** 0.0
26270 H 28.231 42.092 25.758 H 0.0 **** 0.0
26271 C 23.339 68.688 6.291 C 0.0 **** 0.0
26272 H 23.626 67.638 6.349 H 0.0 **** 0.0
26273 H 22.259 68.763 6.163 H 0.0 **** 0.0
26274 H 23.839 69.155 5.443 H 0.0 **** 0.0
26275 H 23.632 69.196 7.21 H 0.0 **** 0.0
26276 C 74.464 5.421 7.033 C 0.0 **** 0.0
26277 H 74.002 5.126 6.091 H 0.0 **** 0.0
26278 H 73.692 5.751 7.728 H 0.0 **** 0.0
26279 H 75.165 6.236 6.854 H 0.0 **** 0.0
26280 H 74.996 4.57 7.459 H 0.0 **** 0.0
26281 C 33.352 89.954 75.567 C 0.0 **** 0.0
26282 H 33.07 89.813 74.524 H 0.0 **** 0.0
26283 H 33.583 91.005 75.742 H 0.0 **** 0.0
26284 H 34.228 89.347 75.792 H 0.0 **** 0.0
26285 H 32.525 89.653 76.211 H 0.0 **** 0.0
26286 C 46.394 94.367 3.717 C 0.0 **** 0.0
26287 H 46.266 95.209 3.036 H 0.0 **** 0.0
26288 H 46.127 94.675 4.728 H 0.0 **** 0.0
26289 H 47.434 94.041 3.699 H 0.0 **** 0.0
26290 H 45.75 93.546 3.404 H 0.0 **** 0.0
26291 C 11.846 8.709 76.533 C 0.0 **** 0.0
26292 H 11.726 7.669 76.838 H 0.0 **** 0.0
26293 H 12.907 8.954 76.49 H 0.0 **** 0.0
26294 H 11.352 9.359 77.255 H 0.0 **** 0.0
26295 H 11.399 8.852 75.549 H 0.0 **** 0.0
26296 C 32.347 5.761 67.454 C 0.0 **** 0.0
26297 H 31.363 5.75 66.984 H 0.0 **** 0.0
26298 H 32.261 6.154 68.467 H 0.0 **** 0.0
26299 H 33.018 6.393 66.874 H 0.0 **** 0.0
26300 H 32.743 4.746 67.489 H 0.0 **** 0.0
26301 C 93.81 52.206 73.344 C 0.0 **** 0.0
26302 H 93.81 52.205 72.254 H 0.0 **** 0.0
26303 H 92.806 51.986 73.707 H 0.0 **** 0.0
26304 H 94.121 53.186 73.706 H 0.0 **** 0.0
26305 H 94.503 51.448 73.708 H 0.0 **** 0.0
26306 C 75.303 19.757 53.82 C 0.0 **** 0.0
26307 H 74.451 19.585 54.478 H 0.0 **** 0.0
26308 H 76.211 19.844 54.417 H 0.0 **** 0.0
26309 H 75.147 20.679 53.259 H 0.0 **** 0.0
26310 H 75.401 18.922 53.127 H 0.0 **** 0.0
26311 C 18.579 47.276 11.404 C 0.0 **** 0.0
26312 H 17.612 47.767 11.508 H 0.0 **** 0.0
26313 H 18.897 47.317 10.362 H 0.0 **** 0.0
26314 H 18.493 46.235 11.718 H 0.0 **** 0.0
26315 H 19.314 47.784 12.029 H 0.0 **** 0.0
26316 C 63.282 21.463 21.462 C 0.0 **** 0.0
26317 H 64.299 21.82 21.62 H 0.0 **** 0.0
26318 H 62.88 21.084 22.402 H 0.0 **** 0.0
26319 H 63.288 20.665 20.72 H 0.0 **** 0.0
26320 H 62.66 22.285 21.106 H 0.0 **** 0.0
26321 C 40.907 56.088 59.65 C 0.0 **** 0.0
26322 H 41.62 56.469 60.381 H 0.0 **** 0.0
26323 H 40.711 55.034 59.848 H 0.0 **** 0.0
26324 H 41.321 56.199 58.648 H 0.0 **** 0.0
26325 H 39.977 56.651 59.723 H 0.0 **** 0.0
26326 C 80.741 69.882 20.737 C 0.0 **** 0.0
26327 H 80.924 70.052 19.676 H 0.0 **** 0.0
26328 H 81.545 69.274 21.152 H 0.0 **** 0.0
26329 H 79.791 69.362 20.863 H 0.0 **** 0.0
26330 H 80.703 70.839 21.257 H 0.0 **** 0.0
26331 C 79.629 33.494 29.787 C 0.0 **** 0.0
26332 H 79.699 33.419 30.873 H 0.0 **** 0.0
26333 H 79.933 34.493 29.473 H 0.0 **** 0.0
26334 H 78.601 33.312 29.476 H 0.0 **** 0.0
26335 H 80.285 32.754 29.329 H 0.0 **** 0.0
26336 C 65.299 54.377 84.583 C 0.0 **** 0.0
26337 H 65.985 53.876 85.266 H 0.0 **** 0.0
26338 H 65.236 53.81 83.653 H 0.0 **** 0.0
26339 H 65.666 55.381 84.372 H 0.0 **** 0.0
26340 H 64.312 54.438 85.039 H 0.0 **** 0.0
26341 C 53.68 24.369 95.342 C 0.0 **** 0.0
26342 H 53.765 23.301 95.138 H 0.0 **** 0.0
26343 H 53.084 24.52 96.242 H 0.0 **** 0.0
26344 H 53.196 24.862 94.498 H 0.0 **** 0.0
26345 H 54.674 24.791 95.488 H 0.0 **** 0.0
26346 C 83.837 11.672 49.081 C 0.0 **** 0.0
26347 H 83.785 12.177 50.045 H 0.0 **** 0.0
26348 H 82.844 11.642 48.632 H 0.0 **** 0.0
26349 H 84.202 10.654 49.224 H 0.0 **** 0.0
26350 H 84.518 12.213 48.424 H 0.0 **** 0.0
26351 C 69.605 59.923 33.936 C 0.0 **** 0.0
26352 H 69.688 59.426 32.97 H 0.0 **** 0.0
26353 H 68.579 59.848 34.296 H 0.0 **** 0.0
26354 H 69.878 60.973 33.83 H 0.0 **** 0.0
26355 H 70.276 59.443 34.649 H 0.0 **** 0.0
26356 C 23.141 2.317 95.477 C 0.0 **** 0.0
26357 H 22.649 3.252 95.212 H 0.0 **** 0.0
26358 H 22.757 1.963 96.434 H 0.0 **** 0.0
26359 H 24.216 2.483 95.556 H 0.0 **** 0.0
26360 H 22.944 1.571 94.707 H 0.0 **** 0.0
26361 C 81.351 5.321 47.868 C 0.0 **** 0.0
26362 H 80.835 5.619 46.955 H 0.0 **** 0.0
26363 H 80.948 5.88 48.712 H 0.0 **** 0.0
26364 H 82.416 5.529 47.768 H 0.0 **** 0.0
26365 H 81.204 4.254 48.035 H 0.0 **** 0.0
26366 C 58.678 14.049 49.621 C 0.0 **** 0.0
26367 H 58.587 12.963 49.592 H 0.0 **** 0.0
26368 H 57.926 14.458 50.296 H 0.0 **** 0.0
26369 H 58.527 14.453 48.62 H 0.0 **** 0.0
26370 H 59.672 14.321 49.977 H 0.0 **** 0.0
26371 C 40.399 73.403 18.306 C 0.0 **** 0.0
26372 H 40.384 73.434 17.217 H 0.0 **** 0.0
26373 H 40.585 72.381 18.638 H 0.0 **** 0.0
26374 H 39.437 73.741 18.692 H 0.0 **** 0.0
26375 H 41.189 74.056 18.677 H 0.0 **** 0.0
26376 C 73.918 51.845 96.129 C 0.0 **** 0.0
26377 H 74.101 52.585 96.908 H 0.0 **** 0.0
26378 H 72.845 51.761 95.953 H 0.0 **** 0.0
26379 H 74.311 50.879 96.446 H 0.0 **** 0.0
26380 H 74.414 52.155 95.209 H 0.0 **** 0.0
26381 C 23.929 82.918 34.942 C 0.0 **** 0.0
26382 H 23.715 83.803 34.343 H 0.0 **** 0.0
26383 H 23.201 82.14 34.714 H 0.0 **** 0.0
26384 H 23.87 83.174 36.0 H 0.0 **** 0.0
26385 H 24.931 82.558 34.711 H 0.0 **** 0.0
26386 C 14.179 80.616 89.553 C 0.0 **** 0.0
26387 H 14.247 80.586 90.64 H 0.0 **** 0.0
26388 H 15.015 81.19 89.152 H 0.0 **** 0.0
26389 H 13.241 81.087 89.261 H 0.0 **** 0.0
26390 H 14.214 79.6 89.159 H 0.0 **** 0.0
26391 C 66.515 15.046 85.473 C 0.0 **** 0.0
26392 H 66.735 15.964 86.02 H 0.0 **** 0.0
26393 H 66.314 14.242 86.181 H 0.0 **** 0.0
26394 H 67.371 14.78 84.853 H 0.0 **** 0.0
26395 H 65.642 15.201 84.84 H 0.0 **** 0.0
26396 C 28.691 30.444 82.048 C 0.0 **** 0.0
26397 H 28.554 31.189 82.831 H 0.0 **** 0.0
26398 H 27.886 30.533 81.318 H 0.0 **** 0.0
26399 H 28.673 29.447 82.488 H 0.0 **** 0.0
26400 H 29.649 30.606 81.554 H 0.0 **** 0.0
26401 C 63.209 70.711 89.62 C 0.0 **** 0.0
26402 H 63.648 70.2 90.477 H 0.0 **** 0.0
26403 H 62.59 70.011 89.059 H 0.0 **** 0.0
26404 H 64.004 71.089 88.977 H 0.0 **** 0.0
26405 H 62.596 71.542 89.967 H 0.0 **** 0.0
26406 C 4.18 19.665 91.739 C 0.0 **** 0.0
26407 H 4.201 19.688 90.649 H 0.0 **** 0.0
26408 H 3.148 19.584 92.08 H 0.0 **** 0.0
26409 H 4.621 20.582 92.13 H 0.0 **** 0.0
26410 H 4.749 18.807 92.095 H 0.0 **** 0.0
26411 C 15.378 53.517 61.149 C 0.0 **** 0.0
26412 H 15.306 54.239 60.336 H 0.0 **** 0.0
26413 H 14.898 52.585 60.849 H 0.0 **** 0.0
26414 H 14.88 53.915 62.033 H 0.0 **** 0.0
26415 H 16.427 53.329 61.376 H 0.0 **** 0.0
26416 C 87.865 13.501 41.66 C 0.0 **** 0.0
26417 H 87.861 13.655 42.739 H 0.0 **** 0.0
26418 H 88.491 12.641 41.419 H 0.0 **** 0.0
26419 H 88.262 14.389 41.168 H 0.0 **** 0.0
26420 H 86.848 13.319 41.315 H 0.0 **** 0.0
26421 C 47.99 40.175 50.95 C 0.0 **** 0.0
26422 H 48.151 39.98 49.89 H 0.0 **** 0.0
26423 H 48.916 39.998 51.497 H 0.0 **** 0.0
26424 H 47.212 39.512 51.327 H 0.0 **** 0.0
26425 H 47.68 41.212 51.085 H 0.0 **** 0.0
26426 C 71.856 15.897 81.466 C 0.0 **** 0.0
26427 H 72.071 14.918 81.038 H 0.0 **** 0.0
26428 H 72.783 16.352 81.815 H 0.0 **** 0.0
26429 H 71.169 15.783 82.305 H 0.0 **** 0.0
26430 H 71.401 16.534 80.708 H 0.0 **** 0.0
26431 C 68.9 35.489 88.726 C 0.0 **** 0.0
26432 H 69.171 35.642 87.681 H 0.0 **** 0.0
26433 H 68.298 36.329 89.072 H 0.0 **** 0.0
26434 H 69.805 35.417 89.329 H 0.0 **** 0.0
26435 H 68.327 34.567 88.821 H 0.0 **** 0.0
26436 C 63.943 94.56 45.43 C 0.0 **** 0.0
26437 H 64.131 94.653 46.5 H 0.0 **** 0.0
26438 H 64.247 95.478 44.927 H 0.0 **** 0.0
26439 H 62.88 94.388 45.261 H 0.0 **** 0.0
26440 H 64.515 93.721 45.033 H 0.0 **** 0.0
26441 C 83.536 96.202 11.821 C 0.0 **** 0.0
26442 H 83.929 95.781 12.746 H 0.0 **** 0.0
26443 H 82.454 96.076 11.795 H 0.0 **** 0.0
26444 H 83.983 95.687 10.97 H 0.0 **** 0.0
26445 H 83.781 97.263 11.772 H 0.0 **** 0.0
26446 C 41.585 22.17 70.616 C 0.0 **** 0.0
26447 H 40.894 21.429 70.215 H 0.0 **** 0.0
26448 H 41.039 23.082 70.86 H 0.0 **** 0.0
26449 H 42.35 22.393 69.871 H 0.0 **** 0.0
26450 H 42.057 21.777 71.516 H 0.0 **** 0.0
26451 C 65.951 16.929 88.888 C 0.0 **** 0.0
26452 H 65.255 16.663 89.684 H 0.0 **** 0.0
26453 H 66.767 17.521 89.301 H 0.0 **** 0.0
26454 H 65.428 17.509 88.127 H 0.0 **** 0.0
26455 H 66.352 16.02 88.439 H 0.0 **** 0.0
26456 C 13.084 37.021 33.976 C 0.0 **** 0.0
26457 H 13.091 37.089 32.888 H 0.0 **** 0.0
26458 H 13.471 37.947 34.4 H 0.0 **** 0.0
26459 H 13.712 36.187 34.291 H 0.0 **** 0.0
26460 H 12.064 36.859 34.323 H 0.0 **** 0.0
26461 C 94.866 87.31 77.366 C 0.0 **** 0.0
26462 H 95.243 86.888 78.298 H 0.0 **** 0.0
26463 H 95.285 86.761 76.523 H 0.0 **** 0.0
26464 H 95.157 88.358 77.298 H 0.0 **** 0.0
26465 H 93.779 87.232 77.346 H 0.0 **** 0.0
26466 C 51.603 36.617 56.321 C 0.0 **** 0.0
26467 H 51.658 36.58 55.233 H 0.0 **** 0.0
26468 H 50.563 36.526 56.635 H 0.0 **** 0.0
26469 H 52.008 37.566 56.673 H 0.0 **** 0.0
26470 H 52.184 35.796 56.741 H 0.0 **** 0.0
26471 C 98.439 4.165 90.528 C 0.0 **** 0.0
26472 H 98.97 4.749 91.28 H 0.0 **** 0.0
26473 H 98.335 3.137 90.875 H 0.0 **** 0.0
26474 H 99.0 4.179 89.594 H 0.0 **** 0.0
26475 H 97.451 4.596 90.365 H 0.0 **** 0.0
26476 C 72.966 58.729 76.526 C 0.0 **** 0.0
26477 H 72.364 59.638 76.537 H 0.0 **** 0.0
26478 H 72.709 58.134 75.649 H 0.0 **** 0.0
26479 H 72.767 58.151 77.428 H 0.0 **** 0.0
26480 H 74.022 58.993 76.49 H 0.0 **** 0.0
26481 C 42.377 39.21 6.973 C 0.0 **** 0.0
26482 H 41.47 39.337 7.565 H 0.0 **** 0.0
26483 H 43.076 40.015 7.202 H 0.0 **** 0.0
26484 H 42.125 39.238 5.913 H 0.0 **** 0.0
26485 H 42.835 38.251 7.212 H 0.0 **** 0.0
26486 C 24.618 2.811 51.107 C 0.0 **** 0.0
26487 H 23.604 2.886 51.498 H 0.0 **** 0.0
26488 H 24.932 3.782 50.724 H 0.0 **** 0.0
26489 H 24.644 2.076 50.303 H 0.0 **** 0.0
26490 H 25.293 2.5 51.905 H 0.0 **** 0.0
26491 C 0.875 35.048 92.323 C 0.0 **** 0.0
26492 H -0.0 34.425 92.136 H 0.0 **** 0.0
26493 H 0.713 36.039 91.899 H 0.0 **** 0.0
26494 H 1.75 34.593 91.86 H 0.0 **** 0.0
26495 H 1.036 35.134 93.398 H 0.0 **** 0.0
26496 C 29.79 76.13 88.685 C 0.0 **** 0.0
26497 H 30.69 76.612 88.303 H 0.0 **** 0.0
26498 H 29.306 76.787 89.408 H 0.0 **** 0.0
26499 H 30.059 75.191 89.169 H 0.0 **** 0.0
26500 H 29.107 75.931 87.86 H 0.0 **** 0.0
26501 C 61.998 82.44 64.352 C 0.0 **** 0.0
26502 H 61.95 82.372 63.265 H 0.0 **** 0.0
26503 H 61.153 83.025 64.716 H 0.0 **** 0.0
26504 H 62.929 82.925 64.645 H 0.0 **** 0.0
26505 H 61.959 81.439 64.781 H 0.0 **** 0.0
26506 C 59.635 94.477 5.105 C 0.0 **** 0.0
26507 H 60.637 94.864 4.919 H 0.0 **** 0.0
26508 H 58.938 95.309 5.21 H 0.0 **** 0.0
26509 H 59.637 93.887 6.021 H 0.0 **** 0.0
26510 H 59.327 93.849 4.269 H 0.0 **** 0.0
26511 C 38.584 25.363 73.33 C 0.0 **** 0.0
26512 H 39.254 25.356 72.47 H 0.0 **** 0.0
26513 H 37.955 26.253 73.292 H 0.0 **** 0.0
26514 H 39.172 25.372 74.247 H 0.0 **** 0.0
26515 H 37.956 24.473 73.308 H 0.0 **** 0.0
26516 C 28.209 30.092 92.201 C 0.0 **** 0.0
26517 H 28.085 30.095 91.119 H 0.0 **** 0.0
26518 H 28.026 31.094 92.591 H 0.0 **** 0.0
26519 H 29.226 29.785 92.449 H 0.0 **** 0.0
26520 H 27.5 29.394 92.646 H 0.0 **** 0.0
26521 C 35.003 48.424 46.438 C 0.0 **** 0.0
26522 H 35.342 47.631 47.105 H 0.0 **** 0.0
26523 H 34.951 48.043 45.418 H 0.0 **** 0.0
26524 H 35.703 49.258 46.48 H 0.0 **** 0.0
26525 H 34.015 48.763 46.751 H 0.0 **** 0.0
26526 C 38.412 39.718 72.019 C 0.0 **** 0.0
26527 H 37.824 39.51 71.125 H 0.0 **** 0.0
26528 H 38.348 38.871 72.702 H 0.0 **** 0.0
26529 H 38.022 40.611 72.51 H 0.0 **** 0.0
26530 H 39.452 39.882 71.74 H 0.0 **** 0.0
26531 C 26.62 23.041 87.845 C 0.0 **** 0.0
26532 H 26.095 22.895 86.901 H 0.0 **** 0.0
26533 H 25.975 23.58 88.539 H 0.0 **** 0.0
26534 H 27.528 23.618 87.67 H 0.0 **** 0.0
26535 H 26.882 22.072 88.269 H 0.0 **** 0.0
26536 C 11.716 75.271 5.995 C 0.0 **** 0.0
26537 H 12.031 74.668 6.846 H 0.0 **** 0.0
26538 H 10.627 75.301 5.955 H 0.0 **** 0.0
26539 H 12.101 74.829 5.075 H 0.0 **** 0.0
26540 H 12.105 76.283 6.103 H 0.0 **** 0.0
26541 C 55.049 93.363 71.543 C 0.0 **** 0.0
26542 H 55.006 93.703 72.578 H 0.0 **** 0.0
26543 H 56.068 93.463 71.17 H 0.0 **** 0.0
26544 H 54.377 93.967 70.934 H 0.0 **** 0.0
26545 H 54.744 92.317 71.492 H 0.0 **** 0.0
26546 C 30.911 41.594 78.706 C 0.0 **** 0.0
26547 H 31.115 41.588 77.635 H 0.0 **** 0.0
26548 H 30.899 42.622 79.067 H 0.0 **** 0.0
26549 H 31.688 41.034 79.226 H 0.0 **** 0.0
26550 H 29.943 41.13 78.893 H 0.0 **** 0.0
26551 C 83.477 24.972 54.504 C 0.0 **** 0.0
26552 H 83.24 25.056 53.444 H 0.0 **** 0.0
26553 H 83.276 25.923 54.998 H 0.0 **** 0.0
26554 H 84.531 24.718 54.622 H 0.0 **** 0.0
26555 H 82.863 24.192 54.953 H 0.0 **** 0.0
26556 C 57.129 45.924 93.547 C 0.0 **** 0.0
26557 H 57.658 45.84 92.598 H 0.0 **** 0.0
26558 H 57.169 46.957 93.894 H 0.0 **** 0.0
26559 H 57.601 45.275 94.284 H 0.0 **** 0.0
26560 H 56.09 45.625 93.411 H 0.0 **** 0.0
26561 C 45.03 53.85 81.929 C 0.0 **** 0.0
26562 H 44.458 53.78 81.004 H 0.0 **** 0.0
26563 H 45.572 52.918 82.092 H 0.0 **** 0.0
26564 H 44.351 54.026 82.763 H 0.0 **** 0.0
26565 H 45.738 54.675 81.857 H 0.0 **** 0.0
26566 C 36.615 15.712 3.451 C 0.0 **** 0.0
26567 H 35.713 15.943 4.017 H 0.0 **** 0.0
26568 H 36.417 15.835 2.386 H 0.0 **** 0.0
26569 H 36.914 14.683 3.649 H 0.0 **** 0.0
26570 H 37.416 16.388 3.753 H 0.0 **** 0.0
26571 C 22.668 5.511 29.15 C 0.0 **** 0.0
26572 H 23.349 4.778 29.582 H 0.0 **** 0.0
26573 H 22.694 5.433 28.063 H 0.0 **** 0.0
26574 H 22.975 6.513 29.451 H 0.0 **** 0.0
26575 H 21.656 5.32 29.505 H 0.0 **** 0.0
26576 C 24.838 37.111 75.456 C 0.0 **** 0.0
26577 H 25.216 36.092 75.372 H 0.0 **** 0.0
26578 H 25.361 37.752 74.747 H 0.0 **** 0.0
26579 H 25.004 37.477 76.469 H 0.0 **** 0.0
26580 H 23.77 37.121 75.236 H 0.0 **** 0.0
26581 C 54.428 46.063 36.463 C 0.0 **** 0.0
26582 H 55.111 45.499 37.099 H 0.0 **** 0.0
26583 H 53.404 45.901 36.798 H 0.0 **** 0.0
26584 H 54.531 45.726 35.431 H 0.0 **** 0.0
26585 H 54.668 47.124 36.524 H 0.0 **** 0.0
26586 C 88.17 69.45 29.074 C 0.0 **** 0.0
26587 H 87.848 68.513 29.529 H 0.0 **** 0.0
26588 H 89.162 69.71 29.443 H 0.0 **** 0.0
26589 H 87.466 70.241 29.334 H 0.0 **** 0.0
26590 H 88.203 69.335 27.991 H 0.0 **** 0.0
26591 C 42.495 75.111 79.574 C 0.0 **** 0.0
26592 H 42.56 75.093 78.486 H 0.0 **** 0.0
26593 H 41.995 76.027 79.892 H 0.0 **** 0.0
26594 H 43.498 75.078 79.998 H 0.0 **** 0.0
26595 H 41.926 74.248 79.919 H 0.0 **** 0.0
26596 C 22.175 28.202 82.867 C 0.0 **** 0.0
26597 H 21.328 27.81 82.303 H 0.0 **** 0.0
26598 H 21.814 28.886 83.635 H 0.0 **** 0.0
26599 H 22.846 28.733 82.192 H 0.0 **** 0.0
26600 H 22.71 27.377 83.337 H 0.0 **** 0.0
26601 C 82.265 69.08 39.403 C 0.0 **** 0.0
26602 H 82.415 68.747 40.429 H 0.0 **** 0.0
26603 H 82.332 68.225 38.73 H 0.0 **** 0.0
26604 H 83.032 69.809 39.141 H 0.0 **** 0.0
26605 H 81.281 69.54 39.311 H 0.0 **** 0.0
26606 C 8.102 5.648 47.18 C 0.0 **** 0.0
26607 H 8.585 6.323 47.886 H 0.0 **** 0.0
26608 H 8.782 5.439 46.354 H 0.0 **** 0.0
26609 H 7.195 6.114 46.795 H 0.0 **** 0.0
26610 H 7.845 4.717 47.685 H 0.0 **** 0.0
26611 C 75.999 70.079 85.779 C 0.0 **** 0.0
26612 H 75.808 69.87 86.832 H 0.0 **** 0.0
26613 H 75.406 69.404 85.162 H 0.0 **** 0.0
26614 H 77.057 69.932 85.566 H 0.0 **** 0.0
26615 H 75.723 71.11 85.558 H 0.0 **** 0.0
26616 C 73.233 73.314 39.798 C 0.0 **** 0.0
26617 H 73.047 73.458 38.734 H 0.0 **** 0.0
26618 H 74.08 72.641 39.931 H 0.0 **** 0.0
26619 H 72.348 72.882 40.266 H 0.0 **** 0.0
26620 H 73.456 74.276 40.26 H 0.0 **** 0.0
26621 C 54.766 79.67 15.995 C 0.0 **** 0.0
26622 H 55.361 78.757 16.017 H 0.0 **** 0.0
26623 H 53.901 79.555 16.649 H 0.0 **** 0.0
26624 H 54.429 79.859 14.976 H 0.0 **** 0.0
26625 H 55.373 80.508 16.338 H 0.0 **** 0.0
26626 C 16.508 38.304 45.287 C 0.0 **** 0.0
26627 H 16.25 38.771 46.237 H 0.0 **** 0.0
26628 H 16.258 37.244 45.324 H 0.0 **** 0.0
26629 H 17.576 38.419 45.104 H 0.0 **** 0.0
26630 H 15.948 38.782 44.483 H 0.0 **** 0.0
26631 C 25.85 3.724 38.479 C 0.0 **** 0.0
26632 H 25.304 2.781 38.46 H 0.0 **** 0.0
26633 H 25.858 4.159 37.48 H 0.0 **** 0.0
26634 H 26.874 3.544 38.805 H 0.0 **** 0.0
26635 H 25.364 4.411 39.172 H 0.0 **** 0.0
26636 C 42.744 21.432 39.459 C 0.0 **** 0.0
26637 H 43.029 21.149 40.473 H 0.0 **** 0.0
26638 H 41.788 21.954 39.483 H 0.0 **** 0.0
26639 H 42.654 20.536 38.844 H 0.0 **** 0.0
26640 H 43.507 22.087 39.037 H 0.0 **** 0.0
26641 C 20.831 75.139 33.519 C 0.0 **** 0.0
26642 H 20.414 75.009 34.517 H 0.0 **** 0.0
26643 H 21.852 75.513 33.598 H 0.0 **** 0.0
26644 H 20.225 75.853 32.962 H 0.0 **** 0.0
26645 H 20.834 74.181 32.998 H 0.0 **** 0.0
26646 C 20.975 77.449 35.793 C 0.0 **** 0.0
26647 H 20.594 77.847 36.734 H 0.0 **** 0.0
26648 H 21.802 78.069 35.446 H 0.0 **** 0.0
26649 H 20.18 77.453 35.048 H 0.0 **** 0.0
26650 H 21.326 76.429 35.946 H 0.0 **** 0.0
26651 C 37.885 70.263 41.038 C 0.0 **** 0.0
26652 H 38.214 71.008 40.314 H 0.0 **** 0.0
26653 H 37.778 69.298 40.542 H 0.0 **** 0.0
26654 H 36.926 70.563 41.459 H 0.0 **** 0.0
26655 H 38.623 70.182 41.836 H 0.0 **** 0.0
26656 C 61.08 69.602 7.428 C 0.0 **** 0.0
26657 H 61.108 69.447 6.349 H 0.0 **** 0.0
26658 H 61.629 70.51 7.679 H 0.0 **** 0.0
26659 H 61.538 68.749 7.929 H 0.0 **** 0.0
26660 H 60.045 69.702 7.754 H 0.0 **** 0.0
26661 C 67.829 68.126 19.598 C 0.0 **** 0.0
26662 H 68.19 69.086 19.969 H 0.0 **** 0.0
26663 H 68.679 67.506 19.312 H 0.0 **** 0.0
26664 H 67.19 68.289 18.731 H 0.0 **** 0.0
26665 H 67.26 67.625 20.381 H 0.0 **** 0.0
26666 C 91.354 47.268 20.873 C 0.0 **** 0.0
26667 H 91.562 47.114 19.814 H 0.0 **** 0.0
26668 H 91.961 46.583 21.466 H 0.0 **** 0.0
26669 H 90.298 47.079 21.067 H 0.0 **** 0.0
26670 H 91.595 48.296 21.144 H 0.0 **** 0.0
26671 C 5.463 23.37 38.537 C 0.0 **** 0.0
26672 H 5.754 23.408 37.488 H 0.0 **** 0.0
26673 H 6.021 24.12 39.097 H 0.0 **** 0.0
26674 H 5.681 22.38 38.938 H 0.0 **** 0.0
26675 H 4.395 23.57 38.625 H 0.0 **** 0.0
26676 C 31.509 58.574 49.45 C 0.0 **** 0.0
26677 H 31.336 58.561 48.374 H 0.0 **** 0.0
26678 H 31.146 59.515 49.865 H 0.0 **** 0.0
26679 H 32.576 58.476 49.648 H 0.0 **** 0.0
26680 H 30.976 57.743 49.913 H 0.0 **** 0.0
26681 C 71.819 29.647 92.836 C 0.0 **** 0.0
26682 H 71.534 30.141 93.764 H 0.0 **** 0.0
26683 H 72.899 29.501 92.818 H 0.0 **** 0.0
26684 H 71.522 30.265 91.989 H 0.0 **** 0.0
26685 H 71.32 28.679 92.772 H 0.0 **** 0.0
26686 C 80.279 66.419 90.644 C 0.0 **** 0.0
26687 H 79.498 67.165 90.498 H 0.0 **** 0.0
26688 H 79.968 65.715 91.416 H 0.0 **** 0.0
26689 H 81.2 66.913 90.953 H 0.0 **** 0.0
26690 H 80.449 65.883 89.71 H 0.0 **** 0.0
26691 C 39.908 67.791 13.046 C 0.0 **** 0.0
26692 H 39.144 67.142 12.618 H 0.0 **** 0.0
26693 H 40.057 68.654 12.397 H 0.0 **** 0.0
26694 H 40.844 67.238 13.137 H 0.0 **** 0.0
26695 H 39.588 68.127 14.032 H 0.0 **** 0.0
26696 C 54.629 87.777 96.478 C 0.0 **** 0.0
26697 H 55.002 87.944 95.467 H 0.0 **** 0.0
26698 H 55.044 88.532 97.146 H 0.0 **** 0.0
26699 H 54.93 86.786 96.816 H 0.0 **** 0.0
26700 H 53.542 87.848 96.48 H 0.0 **** 0.0
26701 C 65.717 57.802 57.826 C 0.0 **** 0.0
26702 H 65.12 56.897 57.937 H 0.0 **** 0.0
26703 H 65.136 58.558 57.298 H 0.0 **** 0.0
26704 H 66.619 57.574 57.259 H 0.0 **** 0.0
26705 H 65.993 58.178 58.811 H 0.0 **** 0.0
26706 C 24.045 25.54 90.736 C 0.0 **** 0.0
26707 H 23.838 24.652 90.14 H 0.0 **** 0.0
26708 H 23.385 26.349 90.424 H 0.0 **** 0.0
26709 H 25.083 25.841 90.592 H 0.0 **** 0.0
26710 H 23.875 25.318 91.79 H 0.0 **** 0.0
26711 C 8.107 12.036 81.321 C 0.0 **** 0.0
26712 H 7.065 11.988 81.637 H 0.0 **** 0.0
26713 H 8.595 12.882 81.806 H 0.0 **** 0.0
26714 H 8.154 12.16 80.24 H 0.0 **** 0.0
26715 H 8.615 11.113 81.603 H 0.0 **** 0.0
26716 C 5.838 17.807 80.16 C 0.0 **** 0.0
26717 H 5.946 18.826 79.79 H 0.0 **** 0.0
26718 H 5.927 17.107 79.329 H 0.0 **** 0.0
26719 H 4.86 17.694 80.629 H 0.0 **** 0.0
26720 H 6.618 17.602 80.894 H 0.0 **** 0.0
26721 C 84.433 80.375 29.301 C 0.0 **** 0.0
26722 H 85.09 79.973 30.072 H 0.0 **** 0.0
26723 H 85.03 80.886 28.545 H 0.0 **** 0.0
26724 H 83.734 81.08 29.75 H 0.0 **** 0.0
26725 H 83.878 79.56 28.835 H 0.0 **** 0.0
26726 C 47.99 93.73 48.226 C 0.0 **** 0.0
26727 H 47.895 94.09 49.251 H 0.0 **** 0.0
26728 H 48.624 94.413 47.659 H 0.0 **** 0.0
26729 H 47.003 93.682 47.765 H 0.0 **** 0.0
26730 H 48.438 92.736 48.23 H 0.0 **** 0.0
26731 C 54.394 40.834 34.546 C 0.0 **** 0.0
26732 H 54.253 40.228 35.441 H 0.0 **** 0.0
26733 H 54.224 41.883 34.787 H 0.0 **** 0.0
26734 H 53.686 40.518 33.779 H 0.0 **** 0.0
26735 H 55.411 40.705 34.177 H 0.0 **** 0.0
26736 C 24.59 62.381 79.102 C 0.0 **** 0.0
26737 H 24.443 62.436 80.181 H 0.0 **** 0.0
26738 H 25.15 61.478 78.858 H 0.0 **** 0.0
26739 H 25.146 63.256 78.767 H 0.0 **** 0.0
26740 H 23.62 62.353 78.605 H 0.0 **** 0.0
26741 C 40.643 46.062 5.315 C 0.0 **** 0.0
26742 H 41.009 46.842 4.648 H 0.0 **** 0.0
26743 H 39.927 45.435 4.782 H 0.0 **** 0.0
26744 H 40.155 46.52 6.176 H 0.0 **** 0.0
26745 H 41.48 45.451 5.653 H 0.0 **** 0.0
26746 C 61.748 25.879 89.329 C 0.0 **** 0.0
26747 H 61.982 26.446 90.23 H 0.0 **** 0.0
26748 H 61.177 24.99 89.597 H 0.0 **** 0.0
26749 H 62.673 25.582 88.836 H 0.0 **** 0.0
26750 H 61.159 26.499 88.653 H 0.0 **** 0.0
26751 C 31.793 28.84 51.95 C 0.0 **** 0.0
26752 H 31.243 28.553 52.846 H 0.0 **** 0.0
26753 H 32.44 28.019 51.642 H 0.0 **** 0.0
26754 H 32.399 29.721 52.163 H 0.0 **** 0.0
26755 H 31.089 29.069 51.15 H 0.0 **** 0.0
26756 C 86.771 18.606 57.429 C 0.0 **** 0.0
26757 H 87.459 19.188 56.817 H 0.0 **** 0.0
26758 H 85.755 18.729 57.052 H 0.0 **** 0.0
26759 H 86.82 18.954 58.461 H 0.0 **** 0.0
26760 H 87.049 17.553 57.387 H 0.0 **** 0.0
26761 C 57.613 88.448 50.969 C 0.0 **** 0.0
26762 H 57.539 89.392 50.429 H 0.0 **** 0.0
26763 H 58.664 88.2 51.124 H 0.0 **** 0.0
26764 H 57.136 87.659 50.388 H 0.0 **** 0.0
26765 H 57.115 88.541 51.934 H 0.0 **** 0.0
26766 C 61.122 16.88 66.791 C 0.0 **** 0.0
26767 H 60.536 15.967 66.691 H 0.0 **** 0.0
26768 H 60.997 17.492 65.898 H 0.0 **** 0.0
26769 H 62.175 16.625 66.913 H 0.0 **** 0.0
26770 H 60.781 17.437 67.664 H 0.0 **** 0.0
26771 C 41.565 41.125 33.873 C 0.0 **** 0.0
26772 H 42.492 40.581 34.056 H 0.0 **** 0.0
26773 H 41.453 41.304 32.804 H 0.0 **** 0.0
26774 H 41.595 42.079 34.4 H 0.0 **** 0.0
26775 H 40.722 40.537 34.234 H 0.0 **** 0.0
26776 C 34.083 43.608 92.202 C 0.0 **** 0.0
26777 H 33.511 42.82 91.711 H 0.0 **** 0.0
26778 H 33.823 44.572 91.764 H 0.0 **** 0.0
26779 H 35.148 43.422 92.064 H 0.0 **** 0.0
26780 H 33.85 43.617 93.267 H 0.0 **** 0.0
26781 C 77.472 9.129 49.447 C 0.0 **** 0.0
26782 H 77.07 9.673 50.301 H 0.0 **** 0.0
26783 H 78.485 9.476 49.241 H 0.0 **** 0.0
26784 H 76.843 9.305 48.575 H 0.0 **** 0.0
26785 H 77.492 8.063 49.672 H 0.0 **** 0.0
26786 C 95.462 18.775 16.637 C 0.0 **** 0.0
26787 H 95.429 19.513 15.835 H 0.0 **** 0.0
26788 H 96.5 18.563 16.892 H 0.0 **** 0.0
26789 H 94.974 17.858 16.307 H 0.0 **** 0.0
26790 H 94.945 19.168 17.512 H 0.0 **** 0.0
26791 C 34.621 64.9 11.386 C 0.0 **** 0.0
26792 H 34.683 64.972 10.3 H 0.0 **** 0.0
26793 H 34.53 65.899 11.812 H 0.0 **** 0.0
26794 H 35.522 64.421 11.769 H 0.0 **** 0.0
26795 H 33.749 64.306 11.661 H 0.0 **** 0.0
26796 C 92.334 73.164 95.429 C 0.0 **** 0.0
26797 H 92.154 72.685 96.391 H 0.0 **** 0.0
26798 H 91.681 74.031 95.328 H 0.0 **** 0.0
26799 H 92.125 72.456 94.627 H 0.0 **** 0.0
26800 H 93.374 73.484 95.371 H 0.0 **** 0.0
26801 C 21.421 82.501 50.373 C 0.0 **** 0.0
26802 H 21.187 81.8 49.572 H 0.0 **** 0.0
26803 H 20.752 82.325 51.216 H 0.0 **** 0.0
26804 H 21.291 83.521 50.013 H 0.0 **** 0.0
26805 H 22.453 82.357 50.692 H 0.0 **** 0.0
26806 C 51.623 27.016 89.002 C 0.0 **** 0.0
26807 H 51.47 26.969 87.924 H 0.0 **** 0.0
26808 H 52.646 26.723 89.237 H 0.0 **** 0.0
26809 H 50.928 26.337 89.497 H 0.0 **** 0.0
26810 H 51.446 28.033 89.351 H 0.0 **** 0.0
26811 C 65.876 69.504 15.989 C 0.0 **** 0.0
26812 H 65.327 70.373 16.353 H 0.0 **** 0.0
26813 H 65.262 68.962 15.27 H 0.0 **** 0.0
26814 H 66.117 68.85 16.827 H 0.0 **** 0.0
26815 H 66.796 69.832 15.507 H 0.0 **** 0.0
26816 C 13.146 69.623 21.165 C 0.0 **** 0.0
26817 H 12.659 69.637 20.19 H 0.0 **** 0.0
26818 H 13.467 70.632 21.425 H 0.0 **** 0.0
26819 H 14.014 68.964 21.128 H 0.0 **** 0.0
26820 H 12.446 69.259 21.916 H 0.0 **** 0.0
26821 C 46.453 63.056 17.39 C 0.0 **** 0.0
26822 H 45.678 63.138 18.152 H 0.0 **** 0.0
26823 H 47.105 62.214 17.624 H 0.0 **** 0.0
26824 H 47.04 63.975 17.369 H 0.0 **** 0.0
26825 H 45.99 62.898 16.417 H 0.0 **** 0.0
26826 C 31.15 89.692 70.535 C 0.0 **** 0.0
26827 H 30.858 90.52 69.89 H 0.0 **** 0.0
26828 H 31.481 88.853 69.922 H 0.0 **** 0.0
26829 H 30.297 89.386 71.141 H 0.0 **** 0.0
26830 H 31.964 90.009 71.187 H 0.0 **** 0.0
26831 C 47.701 34.608 26.709 C 0.0 **** 0.0
26832 H 47.387 35.406 27.383 H 0.0 **** 0.0
26833 H 47.249 33.668 27.024 H 0.0 **** 0.0
26834 H 48.787 34.517 26.735 H 0.0 **** 0.0
26835 H 47.38 34.844 25.694 H 0.0 **** 0.0
26836 C 73.038 4.666 67.058 C 0.0 **** 0.0
26837 H 72.766 4.363 68.069 H 0.0 **** 0.0
26838 H 72.498 4.052 66.337 H 0.0 **** 0.0
26839 H 74.111 4.534 66.916 H 0.0 **** 0.0
26840 H 72.778 5.714 66.91 H 0.0 **** 0.0
26841 C 9.443 32.518 67.923 C 0.0 **** 0.0
26842 H 9.687 32.072 66.959 H 0.0 **** 0.0
26843 H 8.369 32.443 68.095 H 0.0 **** 0.0
26844 H 9.739 33.567 67.924 H 0.0 **** 0.0
26845 H 9.976 31.989 68.713 H 0.0 **** 0.0
26846 C 36.924 80.41 31.031 C 0.0 **** 0.0
26847 H 36.791 79.892 30.081 H 0.0 **** 0.0
26848 H 35.972 80.449 31.56 H 0.0 **** 0.0
26849 H 37.28 81.423 30.846 H 0.0 **** 0.0
26850 H 37.655 79.873 31.637 H 0.0 **** 0.0
26851 C 34.979 90.874 4.097 C 0.0 **** 0.0
26852 H 34.929 90.936 5.184 H 0.0 **** 0.0
26853 H 34.509 91.755 3.661 H 0.0 **** 0.0
26854 H 34.457 89.978 3.761 H 0.0 **** 0.0
26855 H 36.022 90.825 3.784 H 0.0 **** 0.0
26856 C 89.734 39.17 47.198 C 0.0 **** 0.0
26857 H 90.452 38.837 47.948 H 0.0 **** 0.0
26858 H 88.907 38.461 47.149 H 0.0 **** 0.0
26859 H 90.223 39.226 46.226 H 0.0 **** 0.0
26860 H 89.354 40.154 47.471 H 0.0 **** 0.0
26861 C 30.017 47.127 54.756 C 0.0 **** 0.0
26862 H 30.652 47.642 54.035 H 0.0 **** 0.0
26863 H 29.091 46.82 54.27 H 0.0 **** 0.0
26864 H 29.789 47.798 55.584 H 0.0 **** 0.0
26865 H 30.538 46.247 55.135 H 0.0 **** 0.0
26866 C 40.174 81.054 56.045 C 0.0 **** 0.0
26867 H 40.094 82.135 56.165 H 0.0 **** 0.0
26868 H 40.097 80.8 54.988 H 0.0 **** 0.0
26869 H 39.369 80.568 56.596 H 0.0 **** 0.0
26870 H 41.135 80.716 56.432 H 0.0 **** 0.0
26871 C 35.664 48.001 25.555 C 0.0 **** 0.0
26872 H 36.599 48.17 25.02 H 0.0 **** 0.0
26873 H 34.839 48.429 24.985 H 0.0 **** 0.0
26874 H 35.715 48.476 26.534 H 0.0 **** 0.0
26875 H 35.505 46.93 25.678 H 0.0 **** 0.0
26876 C 66.741 85.053 71.773 C 0.0 **** 0.0
26877 H 66.44 84.841 70.747 H 0.0 **** 0.0
26878 H 65.901 84.867 72.443 H 0.0 **** 0.0
26879 H 67.046 86.096 71.854 H 0.0 **** 0.0
26880 H 67.575 84.408 72.048 H 0.0 **** 0.0
26881 C 66.668 12.644 80.231 C 0.0 **** 0.0
26882 H 66.232 13.084 81.129 H 0.0 **** 0.0
26883 H 67.398 13.334 79.806 H 0.0 **** 0.0
26884 H 65.88 12.454 79.502 H 0.0 **** 0.0
26885 H 67.16 11.706 80.488 H 0.0 **** 0.0
26886 C 90.796 70.182 72.635 C 0.0 **** 0.0
26887 H 90.806 70.182 73.725 H 0.0 **** 0.0
26888 H 89.892 69.686 72.28 H 0.0 **** 0.0
26889 H 91.672 69.65 72.264 H 0.0 **** 0.0
26890 H 90.813 71.209 72.271 H 0.0 **** 0.0
26891 C 6.189 70.031 32.316 C 0.0 **** 0.0
26892 H 6.702 70.625 31.56 H 0.0 **** 0.0
26893 H 5.334 70.589 32.698 H 0.0 **** 0.0
26894 H 6.876 69.812 33.133 H 0.0 **** 0.0
26895 H 5.845 69.097 31.871 H 0.0 **** 0.0
26896 C 6.829 25.733 15.283 C 0.0 **** 0.0
26897 H 6.596 25.092 14.433 H 0.0 **** 0.0
26898 H 6.784 26.777 14.974 H 0.0 **** 0.0
26899 H 7.831 25.504 15.647 H 0.0 **** 0.0
26900 H 6.105 25.558 16.079 H 0.0 **** 0.0
26901 C 59.204 23.902 35.148 C 0.0 **** 0.0
26902 H 59.353 24.499 34.248 H 0.0 **** 0.0
26903 H 58.14 23.703 35.28 H 0.0 **** 0.0
26904 H 59.582 24.448 36.012 H 0.0 **** 0.0
26905 H 59.74 22.958 35.05 H 0.0 **** 0.0
26906 C 1.136 44.944 50.157 C 0.0 **** 0.0
26907 H 1.53 45.386 51.072 H 0.0 **** 0.0
26908 H 1.962 44.687 49.493 H 0.0 **** 0.0
26909 H 0.48 45.66 49.661 H 0.0 **** 0.0
26910 H 0.572 44.044 50.402 H 0.0 **** 0.0
26911 C 26.457 89.88 76.448 C 0.0 **** 0.0
26912 H 25.652 89.782 77.176 H 0.0 **** 0.0
26913 H 26.152 90.569 75.66 H 0.0 **** 0.0
26914 H 26.675 88.904 76.014 H 0.0 **** 0.0
26915 H 27.349 90.265 76.943 H 0.0 **** 0.0
26916 C 1.254 50.382 17.925 C 0.0 **** 0.0
26917 H 1.437 50.371 16.85 H 0.0 **** 0.0
26918 H 1.07 51.406 18.251 H 0.0 **** 0.0
26919 H 2.126 49.986 18.445 H 0.0 **** 0.0
26920 H 0.385 49.766 18.152 H 0.0 **** 0.0
26921 C 37.391 5.414 83.236 C 0.0 **** 0.0
26922 H 38.104 6.061 83.745 H 0.0 **** 0.0
26923 H 36.875 4.794 83.969 H 0.0 **** 0.0
26924 H 37.92 4.776 82.528 H 0.0 **** 0.0
26925 H 36.664 6.025 82.701 H 0.0 **** 0.0
26926 C 40.349 36.552 52.979 C 0.0 **** 0.0
26927 H 41.11 37.281 53.255 H 0.0 **** 0.0
26928 H 39.399 36.826 53.439 H 0.0 **** 0.0
26929 H 40.65 35.564 53.328 H 0.0 **** 0.0
26930 H 40.237 36.536 51.895 H 0.0 **** 0.0
26931 C 66.796 29.365 22.449 C 0.0 **** 0.0
26932 H 66.805 29.566 21.378 H 0.0 **** 0.0
26933 H 66.684 28.293 22.616 H 0.0 **** 0.0
26934 H 65.963 29.894 22.912 H 0.0 **** 0.0
26935 H 67.733 29.706 22.891 H 0.0 **** 0.0
26936 C 80.118 89.881 33.969 C 0.0 **** 0.0
26937 H 80.097 89.881 35.059 H 0.0 **** 0.0
26938 H 80.331 88.874 33.61 H 0.0 **** 0.0
26939 H 80.895 90.563 33.621 H 0.0 **** 0.0
26940 H 79.151 90.207 33.587 H 0.0 **** 0.0
26941 C 44.528 17.838 89.054 C 0.0 **** 0.0
26942 H 43.961 18.676 89.459 H 0.0 **** 0.0
26943 H 45.401 18.215 88.52 H 0.0 **** 0.0
26944 H 43.899 17.272 88.367 H 0.0 **** 0.0
26945 H 44.852 17.19 89.869 H 0.0 **** 0.0
26946 C 10.167 66.727 48.101 C 0.0 **** 0.0
26947 H 11.119 66.596 47.587 H 0.0 **** 0.0
26948 H 10.292 67.432 48.923 H 0.0 **** 0.0
26949 H 9.831 65.767 48.493 H 0.0 **** 0.0
26950 H 9.426 67.113 47.4 H 0.0 **** 0.0
26951 C 5.277 33.806 66.747 C 0.0 **** 0.0
26952 H 6.333 33.663 66.52 H 0.0 **** 0.0
26953 H 4.727 33.978 65.822 H 0.0 **** 0.0
26954 H 5.16 34.666 67.406 H 0.0 **** 0.0
26955 H 4.888 32.915 67.241 H 0.0 **** 0.0
26956 C 20.27 54.536 27.122 C 0.0 **** 0.0
26957 H 21.209 54.742 26.609 H 0.0 **** 0.0
26958 H 20.08 55.316 27.86 H 0.0 **** 0.0
26959 H 20.334 53.57 27.624 H 0.0 **** 0.0
26960 H 19.456 54.515 26.397 H 0.0 **** 0.0
26961 C 95.217 55.643 35.746 C 0.0 **** 0.0
26962 H 96.216 55.539 35.324 H 0.0 **** 0.0
26963 H 94.634 56.332 35.134 H 0.0 **** 0.0
26964 H 95.29 56.032 36.762 H 0.0 **** 0.0
26965 H 94.726 54.67 35.764 H 0.0 **** 0.0
26966 C 7.983 70.449 48.359 C 0.0 **** 0.0
26967 H 7.57 71.205 49.027 H 0.0 **** 0.0
26968 H 8.364 69.614 48.947 H 0.0 **** 0.0
26969 H 8.796 70.885 47.777 H 0.0 **** 0.0
26970 H 7.203 70.095 47.685 H 0.0 **** 0.0
26971 C 51.681 94.649 67.67 C 0.0 **** 0.0
26972 H 51.611 95.036 68.687 H 0.0 **** 0.0
26973 H 51.741 93.56 67.7 H 0.0 **** 0.0
26974 H 52.573 95.049 67.19 H 0.0 **** 0.0
26975 H 50.798 94.949 67.106 H 0.0 **** 0.0
26976 C 34.557 77.607 39.03 C 0.0 **** 0.0
26977 H 34.594 77.549 40.118 H 0.0 **** 0.0
26978 H 34.186 76.664 38.628 H 0.0 **** 0.0
26979 H 35.558 77.799 38.643 H 0.0 **** 0.0
26980 H 33.891 78.417 38.733 H 0.0 **** 0.0
26981 C 87.885 58.728 34.933 C 0.0 **** 0.0
26982 H 88.932 59.028 34.911 H 0.0 **** 0.0
26983 H 87.62 58.266 33.981 H 0.0 **** 0.0
26984 H 87.259 59.604 35.099 H 0.0 **** 0.0
26985 H 87.729 58.012 35.74 H 0.0 **** 0.0
26986 C 84.171 55.846 31.347 C 0.0 **** 0.0
26987 H 84.117 55.868 32.436 H 0.0 **** 0.0
26988 H 84.941 55.14 31.036 H 0.0 **** 0.0
26989 H 84.418 56.841 30.976 H 0.0 **** 0.0
26990 H 83.208 55.536 30.942 H 0.0 **** 0.0
26991 C 14.207 40.978 3.851 C 0.0 **** 0.0
26992 H 14.638 41.951 4.086 H 0.0 **** 0.0
26993 H 13.975 40.931 2.787 H 0.0 **** 0.0
26994 H 13.295 40.835 4.429 H 0.0 **** 0.0
26995 H 14.923 40.194 4.102 H 0.0 **** 0.0
26996 C 74.327 5.886 28.636 C 0.0 **** 0.0
26997 H 73.276 5.642 28.482 H 0.0 **** 0.0
26998 H 74.408 6.71 29.346 H 0.0 **** 0.0
26999 H 74.774 6.179 27.687 H 0.0 **** 0.0
27000 H 74.848 5.014 29.03 H 0.0 **** 0.0
27001 C 55.141 82.199 63.851 C 0.0 **** 0.0
27002 H 56.064 82.315 63.282 H 0.0 **** 0.0
27003 H 54.581 81.348 63.464 H 0.0 **** 0.0
27004 H 54.54 83.103 63.758 H 0.0 **** 0.0
27005 H 55.382 82.029 64.901 H 0.0 **** 0.0
27006 C 80.824 89.087 48.793 C 0.0 **** 0.0
27007 H 81.665 88.806 48.158 H 0.0 **** 0.0
27008 H 79.893 88.771 48.323 H 0.0 **** 0.0
27009 H 80.816 90.169 48.925 H 0.0 **** 0.0
27010 H 80.925 88.603 49.764 H 0.0 **** 0.0
27011 C 69.642 74.27 15.575 C 0.0 **** 0.0
27012 H 69.686 73.42 16.256 H 0.0 **** 0.0
27013 H 69.539 73.909 14.551 H 0.0 **** 0.0
27014 H 70.558 74.854 15.664 H 0.0 **** 0.0
27015 H 68.786 74.894 15.829 H 0.0 **** 0.0
27016 C 43.887 17.028 11.361 C 0.0 **** 0.0
27017 H 44.19 16.128 10.825 H 0.0 **** 0.0
27018 H 44.115 17.905 10.756 H 0.0 **** 0.0
27019 H 44.429 17.087 12.305 H 0.0 **** 0.0
27020 H 42.816 16.989 11.558 H 0.0 **** 0.0
27021 C 38.882 8.093 64.262 C 0.0 **** 0.0
27022 H 38.491 8.286 63.262 H 0.0 **** 0.0
27023 H 38.45 8.807 64.964 H 0.0 **** 0.0
27024 H 39.966 8.2 64.254 H 0.0 **** 0.0
27025 H 38.619 7.08 64.564 H 0.0 **** 0.0
27026 C 70.977 88.57 48.124 C 0.0 **** 0.0
27027 H 70.802 88.992 47.134 H 0.0 **** 0.0
27028 H 70.026 88.466 48.647 H 0.0 **** 0.0
27029 H 71.633 89.232 48.689 H 0.0 **** 0.0
27030 H 71.446 87.591 48.024 H 0.0 **** 0.0
27031 C 9.411 34.3 84.141 C 0.0 **** 0.0
27032 H 9.688 34.972 84.954 H 0.0 **** 0.0
27033 H 10.071 33.432 84.148 H 0.0 **** 0.0
27034 H 9.506 34.822 83.19 H 0.0 **** 0.0
27035 H 8.38 33.973 84.276 H 0.0 **** 0.0
27036 C 97.003 97.145 86.531 C 0.0 **** 0.0
27037 H 97.088 96.496 85.66 H 0.0 **** 0.0
27038 H 96.882 98.178 86.204 H 0.0 **** 0.0
27039 H 97.903 97.058 87.138 H 0.0 **** 0.0
27040 H 96.136 96.847 87.122 H 0.0 **** 0.0
27041 C 24.998 8.775 84.511 C 0.0 **** 0.0
27042 H 25.293 8.151 83.667 H 0.0 **** 0.0
27043 H 24.302 8.225 85.144 H 0.0 **** 0.0
27044 H 24.517 9.681 84.142 H 0.0 **** 0.0
27045 H 25.882 9.044 85.09 H 0.0 **** 0.0
27046 C 16.928 28.146 87.95 C 0.0 **** 0.0
27047 H 16.732 28.048 86.882 H 0.0 **** 0.0
27048 H 18.0 28.065 88.131 H 0.0 **** 0.0
27049 H 16.407 27.355 88.489 H 0.0 **** 0.0
27050 H 16.573 29.117 88.296 H 0.0 **** 0.0
27051 C 50.181 70.665 95.874 C 0.0 **** 0.0
27052 H 50.386 70.846 96.929 H 0.0 **** 0.0
27053 H 50.941 71.158 95.267 H 0.0 **** 0.0
27054 H 49.199 71.064 95.621 H 0.0 **** 0.0
27055 H 50.199 69.593 95.679 H 0.0 **** 0.0
27056 C 41.303 60.747 78.13 C 0.0 **** 0.0
27057 H 41.652 59.892 77.552 H 0.0 **** 0.0
27058 H 42.159 61.333 78.465 H 0.0 **** 0.0
27059 H 40.742 60.396 78.996 H 0.0 **** 0.0
27060 H 40.658 61.368 77.507 H 0.0 **** 0.0
27061 C 46.22 12.437 92.234 C 0.0 **** 0.0
27062 H 45.657 12.43 93.167 H 0.0 **** 0.0
27063 H 46.023 13.365 91.698 H 0.0 **** 0.0
27064 H 45.916 11.59 91.619 H 0.0 **** 0.0
27065 H 47.286 12.363 92.453 H 0.0 **** 0.0
27066 C 34.432 18.788 55.149 C 0.0 **** 0.0
27067 H 34.412 19.229 54.152 H 0.0 **** 0.0
27068 H 34.591 19.572 55.889 H 0.0 **** 0.0
27069 H 35.242 18.062 55.208 H 0.0 **** 0.0
27070 H 33.482 18.29 55.344 H 0.0 **** 0.0
27071 C 18.128 49.928 88.904 C 0.0 **** 0.0
27072 H 18.128 49.984 89.993 H 0.0 **** 0.0
27073 H 18.637 50.802 88.496 H 0.0 **** 0.0
27074 H 17.1 49.904 88.542 H 0.0 **** 0.0
27075 H 18.646 49.023 88.586 H 0.0 **** 0.0
27076 C 80.076 60.069 77.398 C 0.0 **** 0.0
27077 H 80.042 60.598 78.35 H 0.0 **** 0.0
27078 H 81.016 60.291 76.893 H 0.0 **** 0.0
27079 H 79.243 60.391 76.774 H 0.0 **** 0.0
27080 H 80.003 58.996 77.577 H 0.0 **** 0.0
27081 C 15.054 82.221 24.821 C 0.0 **** 0.0
27082 H 15.227 82.166 23.747 H 0.0 **** 0.0
27083 H 15.11 81.22 25.25 H 0.0 **** 0.0
27084 H 14.066 82.642 25.008 H 0.0 **** 0.0
27085 H 15.812 82.856 25.28 H 0.0 **** 0.0
27086 C 55.542 49.084 30.379 C 0.0 **** 0.0
27087 H 54.469 49.178 30.21 H 0.0 **** 0.0
27088 H 55.845 49.763 31.176 H 0.0 **** 0.0
27089 H 56.078 49.336 29.464 H 0.0 **** 0.0
27090 H 55.775 48.058 30.666 H 0.0 **** 0.0
27091 C 97.319 86.27 21.827 C 0.0 **** 0.0
27092 H 97.408 86.135 20.75 H 0.0 **** 0.0
27093 H 97.525 87.31 22.081 H 0.0 **** 0.0
27094 H 98.034 85.623 22.335 H 0.0 **** 0.0
27095 H 96.308 86.012 22.143 H 0.0 **** 0.0
27096 C 21.489 76.724 20.63 C 0.0 **** 0.0
27097 H 22.534 76.867 20.907 H 0.0 **** 0.0
27098 H 21.025 77.694 20.451 H 0.0 **** 0.0
27099 H 20.966 76.214 21.439 H 0.0 **** 0.0
27100 H 21.433 76.121 19.724 H 0.0 **** 0.0
27101 C 6.174 55.684 13.029 C 0.0 **** 0.0
27102 H 7.188 55.351 13.25 H 0.0 **** 0.0
27103 H 5.576 54.835 12.698 H 0.0 **** 0.0
27104 H 6.203 56.438 12.242 H 0.0 **** 0.0
27105 H 5.73 56.114 13.927 H 0.0 **** 0.0
27106 C 58.479 50.149 68.679 C 0.0 **** 0.0
27107 H 58.71 49.101 68.872 H 0.0 **** 0.0
27108 H 59.037 50.489 67.806 H 0.0 **** 0.0
27109 H 58.759 50.748 69.546 H 0.0 **** 0.0
27110 H 57.41 50.257 68.493 H 0.0 **** 0.0
27111 C 25.271 97.138 61.332 C 0.0 **** 0.0
27112 H 24.532 96.341 61.406 H 0.0 **** 0.0
27113 H 25.045 97.764 60.469 H 0.0 **** 0.0
27114 H 26.264 96.703 61.216 H 0.0 **** 0.0
27115 H 25.244 97.744 62.238 H 0.0 **** 0.0
27116 C 68.901 80.509 28.144 C 0.0 **** 0.0
27117 H 69.054 79.517 28.57 H 0.0 **** 0.0
27118 H 69.811 81.098 28.26 H 0.0 **** 0.0
27119 H 68.079 81.003 28.662 H 0.0 **** 0.0
27120 H 68.66 80.417 27.085 H 0.0 **** 0.0
27121 C 14.156 49.047 72.071 C 0.0 **** 0.0
27122 H 14.313 49.138 70.996 H 0.0 **** 0.0
27123 H 14.582 48.106 72.422 H 0.0 **** 0.0
27124 H 13.088 49.065 72.285 H 0.0 **** 0.0
27125 H 14.643 49.879 72.581 H 0.0 **** 0.0
27126 C 68.292 57.682 35.973 C 0.0 **** 0.0
27127 H 67.503 57.721 36.724 H 0.0 **** 0.0
27128 H 68.765 56.7 35.996 H 0.0 **** 0.0
27129 H 69.037 58.449 36.188 H 0.0 **** 0.0
27130 H 67.865 57.857 34.986 H 0.0 **** 0.0
27131 C 86.274 3.715 35.97 C 0.0 **** 0.0
27132 H 85.266 3.351 35.769 H 0.0 **** 0.0
27133 H 87.001 2.989 35.606 H 0.0 **** 0.0
27134 H 86.403 3.853 37.043 H 0.0 **** 0.0
27135 H 86.424 4.667 35.46 H 0.0 **** 0.0
27136 C 92.876 51.099 44.446 C 0.0 **** 0.0
27137 H 92.875 52.125 44.079 H 0.0 **** 0.0
27138 H 91.858 50.804 44.702 H 0.0 **** 0.0
27139 H 93.508 51.03 45.331 H 0.0 **** 0.0
27140 H 93.263 50.437 43.671 H 0.0 **** 0.0
27141 C 24.478 49.601 14.109 C 0.0 **** 0.0
27142 H 23.476 49.98 13.91 H 0.0 **** 0.0
27143 H 25.167 49.984 13.356 H 0.0 **** 0.0
27144 H 24.468 48.511 14.072 H 0.0 **** 0.0
27145 H 24.8 49.928 15.098 H 0.0 **** 0.0
27146 C 93.037 12.411 8.5 C 0.0 **** 0.0
27147 H 92.349 13.197 8.187 H 0.0 **** 0.0
27148 H 93.027 12.332 9.587 H 0.0 **** 0.0
27149 H 94.044 12.655 8.162 H 0.0 **** 0.0
27150 H 92.726 11.462 8.063 H 0.0 **** 0.0
27151 C 36.183 55.352 52.125 C 0.0 **** 0.0
27152 H 37.111 55.728 52.557 H 0.0 **** 0.0
27153 H 35.619 54.815 52.888 H 0.0 **** 0.0
27154 H 36.414 54.678 51.3 H 0.0 **** 0.0
27155 H 35.59 56.189 51.755 H 0.0 **** 0.0
27156 C 19.882 37.798 82.691 C 0.0 **** 0.0
27157 H 19.127 37.41 83.375 H 0.0 **** 0.0
27158 H 19.395 38.204 81.804 H 0.0 **** 0.0
27159 H 20.555 36.992 82.398 H 0.0 **** 0.0
27160 H 20.451 38.585 83.186 H 0.0 **** 0.0
27161 C 21.781 48.493 67.647 C 0.0 **** 0.0
27162 H 21.917 49.02 66.702 H 0.0 **** 0.0
27163 H 21.094 49.055 68.28 H 0.0 **** 0.0
27164 H 22.743 48.396 68.15 H 0.0 **** 0.0
27165 H 21.37 47.502 67.454 H 0.0 **** 0.0
27166 C 49.999 48.585 44.147 C 0.0 **** 0.0
27167 H 50.617 47.913 43.552 H 0.0 **** 0.0
27168 H 50.487 48.777 45.102 H 0.0 **** 0.0
27169 H 49.026 48.125 44.321 H 0.0 **** 0.0
27170 H 49.866 49.525 43.611 H 0.0 **** 0.0
27171 C 11.089 36.598 3.192 C 0.0 **** 0.0
27172 H 11.801 36.738 4.005 H 0.0 **** 0.0
27173 H 10.52 35.684 3.361 H 0.0 **** 0.0
27174 H 11.628 36.521 2.247 H 0.0 **** 0.0
27175 H 10.409 37.449 3.154 H 0.0 **** 0.0
27176 C 16.103 51.65 68.399 C 0.0 **** 0.0
27177 H 16.135 50.732 68.985 H 0.0 **** 0.0
27178 H 15.496 52.392 68.92 H 0.0 **** 0.0
27179 H 15.665 51.443 67.422 H 0.0 **** 0.0
27180 H 17.115 52.034 68.27 H 0.0 **** 0.0
27181 C 5.66 1.021 40.958 C 0.0 **** 0.0
27182 H 5.895 0.124 41.53 H 0.0 **** 0.0
27183 H 5.701 1.891 41.614 H 0.0 **** 0.0
27184 H 4.659 0.931 40.535 H 0.0 **** 0.0
27185 H 6.385 1.139 40.153 H 0.0 **** 0.0
27186 C 1.821 38.217 18.695 C 0.0 **** 0.0
27187 H 2.519 38.09 19.522 H 0.0 **** 0.0
27188 H 1.439 37.243 18.39 H 0.0 **** 0.0
27189 H 2.335 38.685 17.855 H 0.0 **** 0.0
27190 H 0.993 38.85 19.012 H 0.0 **** 0.0
27191 C 76.083 58.183 69.123 C 0.0 **** 0.0
27192 H 75.559 57.804 70.0 H 0.0 **** 0.0
27193 H 75.454 58.912 68.611 H 0.0 **** 0.0
27194 H 76.306 57.358 68.447 H 0.0 **** 0.0
27195 H 77.013 58.66 69.433 H 0.0 **** 0.0
27196 C 43.036 57.501 48.173 C 0.0 **** 0.0
27197 H 42.863 56.574 48.721 H 0.0 **** 0.0
27198 H 42.39 57.53 47.296 H 0.0 **** 0.0
27199 H 44.079 57.547 47.859 H 0.0 **** 0.0
27200 H 42.813 58.351 48.818 H 0.0 **** 0.0
27201 C 27.553 76.387 36.291 C 0.0 **** 0.0
27202 H 27.176 76.581 35.287 H 0.0 **** 0.0
27203 H 28.144 75.471 36.285 H 0.0 **** 0.0
27204 H 26.715 76.274 36.978 H 0.0 **** 0.0
27205 H 28.177 77.221 36.611 H 0.0 **** 0.0
27206 C 67.315 82.412 36.372 C 0.0 **** 0.0
27207 H 68.331 82.533 36.749 H 0.0 **** 0.0
27208 H 67.326 81.75 35.505 H 0.0 **** 0.0
27209 H 66.917 83.384 36.082 H 0.0 **** 0.0
27210 H 66.688 81.98 37.151 H 0.0 **** 0.0
27211 C 53.339 76.084 7.706 C 0.0 **** 0.0
27212 H 53.773 75.087 7.633 H 0.0 **** 0.0
27213 H 53.756 76.719 6.924 H 0.0 **** 0.0
27214 H 53.569 76.51 8.682 H 0.0 **** 0.0
27215 H 52.258 76.019 7.583 H 0.0 **** 0.0
27216 C 43.935 93.705 87.627 C 0.0 **** 0.0
27217 H 44.548 93.349 88.455 H 0.0 **** 0.0
27218 H 44.224 93.186 86.712 H 0.0 **** 0.0
27219 H 44.086 94.777 87.499 H 0.0 **** 0.0
27220 H 42.885 93.508 87.841 H 0.0 **** 0.0
27221 C 44.464 32.68 15.024 C 0.0 **** 0.0
27222 H 45.048 33.2 14.264 H 0.0 **** 0.0
27223 H 44.296 31.65 14.71 H 0.0 **** 0.0
27224 H 43.505 33.183 15.152 H 0.0 **** 0.0
27225 H 45.008 32.689 15.968 H 0.0 **** 0.0
27226 C 56.823 54.069 50.253 C 0.0 **** 0.0
27227 H 57.286 54.881 50.814 H 0.0 **** 0.0
27228 H 56.226 53.456 50.928 H 0.0 **** 0.0
27229 H 57.599 53.456 49.795 H 0.0 **** 0.0
27230 H 56.182 54.484 49.476 H 0.0 **** 0.0
27231 C 92.486 87.783 58.557 C 0.0 **** 0.0
27232 H 92.735 87.369 57.58 H 0.0 **** 0.0
27233 H 92.917 88.781 58.648 H 0.0 **** 0.0
27234 H 92.889 87.14 59.338 H 0.0 **** 0.0
27235 H 91.402 87.844 58.659 H 0.0 **** 0.0
27236 C 72.198 26.502 8.27 C 0.0 **** 0.0
27237 H 72.089 26.786 7.224 H 0.0 **** 0.0
27238 H 71.702 27.239 8.901 H 0.0 **** 0.0
27239 H 73.257 26.458 8.526 H 0.0 **** 0.0
27240 H 71.746 25.523 8.43 H 0.0 **** 0.0
27241 C 34.425 12.749 52.014 C 0.0 **** 0.0
27242 H 35.18 12.307 51.365 H 0.0 **** 0.0
27243 H 33.464 12.762 51.499 H 0.0 **** 0.0
27244 H 34.715 13.769 52.267 H 0.0 **** 0.0
27245 H 34.34 12.159 52.927 H 0.0 **** 0.0
27246 C 40.284 71.522 35.204 C 0.0 **** 0.0
27247 H 40.865 72.067 35.947 H 0.0 **** 0.0
27248 H 39.555 70.887 35.707 H 0.0 **** 0.0
27249 H 40.952 70.904 34.603 H 0.0 **** 0.0
27250 H 39.766 72.23 34.557 H 0.0 **** 0.0
27251 C 10.713 68.058 63.972 C 0.0 **** 0.0
27252 H 11.391 68.437 64.737 H 0.0 **** 0.0
27253 H 9.684 68.283 64.254 H 0.0 **** 0.0
27254 H 10.837 66.979 63.88 H 0.0 **** 0.0
27255 H 10.941 68.532 63.018 H 0.0 **** 0.0
27256 C 92.176 34.562 66.19 C 0.0 **** 0.0
27257 H 93.021 34.384 66.855 H 0.0 **** 0.0
27258 H 91.547 35.35 66.605 H 0.0 **** 0.0
27259 H 91.593 33.646 66.092 H 0.0 **** 0.0
27260 H 92.542 34.866 65.21 H 0.0 **** 0.0
27261 C 27.289 83.208 96.697 C 0.0 **** 0.0
27262 H 27.296 83.754 97.641 H 0.0 **** 0.0
27263 H 28.129 83.535 96.083 H 0.0 **** 0.0
27264 H 26.355 83.405 96.171 H 0.0 **** 0.0
27265 H 27.377 82.14 96.894 H 0.0 **** 0.0
27266 C 87.642 88.369 59.413 C 0.0 **** 0.0
27267 H 87.615 88.474 58.329 H 0.0 **** 0.0
27268 H 87.609 89.356 59.875 H 0.0 **** 0.0
27269 H 88.56 87.86 59.707 H 0.0 **** 0.0
27270 H 86.782 87.785 59.742 H 0.0 **** 0.0
27271 C 67.792 71.373 50.658 C 0.0 **** 0.0
27272 H 68.305 70.938 51.516 H 0.0 **** 0.0
27273 H 67.231 72.252 50.977 H 0.0 **** 0.0
27274 H 67.108 70.639 50.233 H 0.0 **** 0.0
27275 H 68.526 71.664 49.906 H 0.0 **** 0.0
27276 C 69.128 59.44 75.787 C 0.0 **** 0.0
27277 H 68.714 60.03 74.969 H 0.0 **** 0.0
27278 H 68.944 59.95 76.732 H 0.0 **** 0.0
27279 H 70.202 59.32 75.641 H 0.0 **** 0.0
27280 H 68.652 58.46 75.804 H 0.0 **** 0.0
27281 C 17.73 4.176 43.074 C 0.0 **** 0.0
27282 H 18.655 4.037 43.634 H 0.0 **** 0.0
27283 H 17.083 3.311 43.222 H 0.0 **** 0.0
27284 H 17.959 4.282 42.014 H 0.0 **** 0.0
27285 H 17.223 5.074 43.428 H 0.0 **** 0.0
27286 C 97.677 8.399 11.654 C 0.0 **** 0.0
27287 H 97.761 8.406 12.74 H 0.0 **** 0.0
27288 H 97.141 9.29 11.326 H 0.0 **** 0.0
27289 H 97.133 7.51 11.337 H 0.0 **** 0.0
27290 H 98.674 8.391 11.213 H 0.0 **** 0.0
27291 C 91.508 37.065 51.0 C 0.0 **** 0.0
27292 H 92.363 37.543 51.477 H 0.0 **** 0.0
27293 H 91.249 37.607 50.09 H 0.0 **** 0.0
27294 H 90.659 37.075 51.684 H 0.0 **** 0.0
27295 H 91.761 36.034 50.75 H 0.0 **** 0.0
27296 C 86.503 14.638 21.555 C 0.0 **** 0.0
27297 H 86.634 13.556 21.522 H 0.0 **** 0.0
27298 H 87.207 15.067 22.268 H 0.0 **** 0.0
27299 H 85.484 14.871 21.865 H 0.0 **** 0.0
27300 H 86.687 15.055 20.565 H 0.0 **** 0.0
27301 C 49.302 8.655 19.44 C 0.0 **** 0.0
27302 H 48.457 9.249 19.092 H 0.0 **** 0.0
27303 H 49.988 8.479 18.61 H 0.0 **** 0.0
27304 H 48.942 7.7 19.823 H 0.0 **** 0.0
27305 H 49.822 9.193 20.233 H 0.0 **** 0.0
27306 C 65.428 96.981 47.912 C 0.0 **** 0.0
27307 H 65.175 97.041 46.854 H 0.0 **** 0.0
27308 H 64.851 96.183 48.379 H 0.0 **** 0.0
27309 H 65.195 97.929 48.396 H 0.0 **** 0.0
27310 H 66.493 96.77 48.019 H 0.0 **** 0.0
27311 C 19.13 6.758 87.785 C 0.0 **** 0.0
27312 H 19.485 6.452 88.769 H 0.0 **** 0.0
27313 H 18.051 6.615 87.728 H 0.0 **** 0.0
27314 H 19.618 6.155 87.02 H 0.0 **** 0.0
27315 H 19.366 7.81 87.625 H 0.0 **** 0.0
27316 C 43.529 81.691 89.08 C 0.0 **** 0.0
27317 H 43.737 82.188 88.133 H 0.0 **** 0.0
27318 H 42.499 81.889 89.375 H 0.0 **** 0.0
27319 H 44.206 82.069 89.845 H 0.0 **** 0.0
27320 H 43.674 80.616 88.965 H 0.0 **** 0.0
27321 C 24.564 66.212 26.45 C 0.0 **** 0.0
27322 H 25.294 66.891 26.89 H 0.0 **** 0.0
27323 H 25.053 65.587 25.703 H 0.0 **** 0.0
27324 H 23.769 66.79 25.978 H 0.0 **** 0.0
27325 H 24.14 65.581 27.231 H 0.0 **** 0.0
27326 C 87.296 31.136 46.375 C 0.0 **** 0.0
27327 H 86.757 32.038 46.085 H 0.0 **** 0.0
27328 H 87.825 31.314 47.312 H 0.0 **** 0.0
27329 H 88.014 30.876 45.596 H 0.0 **** 0.0
27330 H 86.589 30.317 46.506 H 0.0 **** 0.0
27331 C 92.163 67.825 74.781 C 0.0 **** 0.0
27332 H 92.706 68.323 73.977 H 0.0 **** 0.0
27333 H 92.859 67.236 75.379 H 0.0 **** 0.0
27334 H 91.404 67.169 74.355 H 0.0 **** 0.0
27335 H 91.684 68.574 75.412 H 0.0 **** 0.0
27336 C 48.824 64.843 19.158 C 0.0 **** 0.0
27337 H 49.601 64.818 19.922 H 0.0 **** 0.0
27338 H 47.939 64.323 19.524 H 0.0 **** 0.0
27339 H 49.187 64.352 18.255 H 0.0 **** 0.0
27340 H 48.571 65.879 18.931 H 0.0 **** 0.0
27341 C 1.598 56.894 39.521 C 0.0 **** 0.0
27342 H 0.825 57.657 39.614 H 0.0 **** 0.0
27343 H 2.346 57.038 40.301 H 0.0 **** 0.0
27344 H 2.072 56.974 38.543 H 0.0 **** 0.0
27345 H 1.148 55.907 39.626 H 0.0 **** 0.0
27346 C 16.393 53.796 98.283 C 0.0 **** 0.0
27347 H 15.93 54.763 98.484 H 0.0 **** 0.0
27348 H 17.476 53.886 98.373 H 0.0 **** 0.0
27349 H 16.138 53.475 97.273 H 0.0 **** 0.0
27350 H 16.027 53.063 99.001 H 0.0 **** 0.0
27351 C 76.563 8.801 75.717 C 0.0 **** 0.0
27352 H 75.636 9.311 75.457 H 0.0 **** 0.0
27353 H 76.342 7.777 76.019 H 0.0 **** 0.0
27354 H 77.048 9.327 76.54 H 0.0 **** 0.0
27355 H 77.226 8.79 74.852 H 0.0 **** 0.0
27356 C 94.062 37.802 49.057 C 0.0 **** 0.0
27357 H 94.904 37.577 49.712 H 0.0 **** 0.0
27358 H 93.356 38.446 49.582 H 0.0 **** 0.0
27359 H 93.566 36.875 48.771 H 0.0 **** 0.0
27360 H 94.424 38.311 48.163 H 0.0 **** 0.0
27361 C 12.854 60.152 75.317 C 0.0 **** 0.0
27362 H 13.478 59.504 75.933 H 0.0 **** 0.0
27363 H 11.823 60.101 75.666 H 0.0 **** 0.0
27364 H 12.904 59.823 74.279 H 0.0 **** 0.0
27365 H 13.213 61.178 75.391 H 0.0 **** 0.0
27366 C 34.352 22.692 92.487 C 0.0 **** 0.0
27367 H 34.502 23.702 92.106 H 0.0 **** 0.0
27368 H 35.227 22.385 93.06 H 0.0 **** 0.0
27369 H 34.206 22.007 91.651 H 0.0 **** 0.0
27370 H 33.472 22.674 93.13 H 0.0 **** 0.0
27371 C 64.175 9.757 23.964 C 0.0 **** 0.0
27372 H 64.124 9.861 25.048 H 0.0 **** 0.0
27373 H 64.374 10.731 23.515 H 0.0 **** 0.0
27374 H 63.225 9.373 23.591 H 0.0 **** 0.0
27375 H 64.975 9.065 23.702 H 0.0 **** 0.0
27376 C 77.185 22.935 97.917 C 0.0 **** 0.0
27377 H 77.669 22.023 98.268 H 0.0 **** 0.0
27378 H 76.122 22.896 98.155 H 0.0 **** 0.0
27379 H 77.314 23.022 96.839 H 0.0 **** 0.0
27380 H 77.637 23.797 98.408 H 0.0 **** 0.0
27381 C 1.635 61.026 41.322 C 0.0 **** 0.0
27382 H 1.153 60.617 42.21 H 0.0 **** 0.0
27383 H 2.656 61.32 41.565 H 0.0 **** 0.0
27384 H 1.078 61.897 40.976 H 0.0 **** 0.0
27385 H 1.65 60.27 40.537 H 0.0 **** 0.0
27386 C 86.966 11.133 46.438 C 0.0 **** 0.0
27387 H 87.287 11.276 47.47 H 0.0 **** 0.0
27388 H 87.831 10.905 45.816 H 0.0 **** 0.0
27389 H 86.488 12.044 46.078 H 0.0 **** 0.0
27390 H 86.256 10.307 46.391 H 0.0 **** 0.0
27391 C 87.41 55.907 37.564 C 0.0 **** 0.0
27392 H 86.959 56.089 36.589 H 0.0 **** 0.0
27393 H 87.163 54.898 37.896 H 0.0 **** 0.0
27394 H 87.025 56.631 38.283 H 0.0 **** 0.0
27395 H 88.493 56.01 37.488 H 0.0 **** 0.0
27396 C 12.696 47.776 1.923 C 0.0 **** 0.0
27397 H 12.195 48.28 2.75 H 0.0 **** 0.0
27398 H 13.73 48.117 1.862 H 0.0 **** 0.0
27399 H 12.181 48.009 0.991 H 0.0 **** 0.0
27400 H 12.677 46.699 2.089 H 0.0 **** 0.0
27401 C 90.781 67.782 5.301 C 0.0 **** 0.0
27402 H 90.478 68.814 5.122 H 0.0 **** 0.0
27403 H 90.919 67.625 6.371 H 0.0 **** 0.0
27404 H 91.718 67.584 4.78 H 0.0 **** 0.0
27405 H 90.009 67.108 4.93 H 0.0 **** 0.0
27406 C 79.528 79.747 18.304 C 0.0 **** 0.0
27407 H 79.963 80.638 18.756 H 0.0 **** 0.0
27408 H 78.507 79.962 17.987 H 0.0 **** 0.0
27409 H 79.518 78.937 19.034 H 0.0 **** 0.0
27410 H 80.122 79.45 17.44 H 0.0 **** 0.0
27411 C 20.871 63.909 4.023 C 0.0 **** 0.0
27412 H 21.916 63.907 3.711 H 0.0 **** 0.0
27413 H 20.739 63.212 4.851 H 0.0 **** 0.0
27414 H 20.243 63.604 3.186 H 0.0 **** 0.0
27415 H 20.59 64.912 4.342 H 0.0 **** 0.0
27416 C 23.923 65.057 38.515 C 0.0 **** 0.0
27417 H 23.605 64.413 39.336 H 0.0 **** 0.0
27418 H 24.054 64.457 37.614 H 0.0 **** 0.0
27419 H 24.868 65.535 38.774 H 0.0 **** 0.0
27420 H 23.166 65.82 38.338 H 0.0 **** 0.0
27421 C 44.831 44.593 44.616 C 0.0 **** 0.0
27422 H 44.221 45.476 44.806 H 0.0 **** 0.0
27423 H 44.968 44.469 43.542 H 0.0 **** 0.0
27424 H 44.333 43.713 45.023 H 0.0 **** 0.0
27425 H 45.803 44.714 45.095 H 0.0 **** 0.0
27426 C 56.987 56.278 22.935 C 0.0 **** 0.0
27427 H 57.558 57.043 22.409 H 0.0 **** 0.0
27428 H 57.438 56.094 23.91 H 0.0 **** 0.0
27429 H 56.99 55.357 22.352 H 0.0 **** 0.0
27430 H 55.96 56.62 23.068 H 0.0 **** 0.0
27431 C 1.01 83.594 39.412 C 0.0 **** 0.0
27432 H -0.031 83.781 39.673 H 0.0 **** 0.0
27433 H 1.66 84.084 40.136 H 0.0 **** 0.0
27434 H 1.211 83.99 38.416 H 0.0 **** 0.0
27435 H 1.199 82.521 39.421 H 0.0 **** 0.0
27436 C 75.699 64.085 86.422 C 0.0 **** 0.0
27437 H 75.271 64.876 87.038 H 0.0 **** 0.0
27438 H 76.66 64.412 86.027 H 0.0 **** 0.0
27439 H 75.023 63.862 85.597 H 0.0 **** 0.0
27440 H 75.84 63.19 87.028 H 0.0 **** 0.0
27441 C 29.918 69.512 51.68 C 0.0 **** 0.0
27442 H 29.94 69.626 52.764 H 0.0 **** 0.0
27443 H 29.015 68.974 51.39 H 0.0 **** 0.0
27444 H 30.795 68.951 51.356 H 0.0 **** 0.0
27445 H 29.922 70.496 51.211 H 0.0 **** 0.0
27446 C 23.096 61.736 25.888 C 0.0 **** 0.0
27447 H 23.169 61.384 26.917 H 0.0 **** 0.0
27448 H 23.454 60.959 25.212 H 0.0 **** 0.0
27449 H 23.703 62.633 25.767 H 0.0 **** 0.0
27450 H 22.056 61.967 25.657 H 0.0 **** 0.0
27451 C 27.323 59.879 1.624 C 0.0 **** 0.0
27452 H 27.005 59.565 2.618 H 0.0 **** 0.0
27453 H 27.054 60.924 1.47 H 0.0 **** 0.0
27454 H 26.831 59.261 0.873 H 0.0 **** 0.0
27455 H 28.404 59.765 1.537 H 0.0 **** 0.0
27456 C 52.604 21.571 39.248 C 0.0 **** 0.0
27457 H 51.814 22.236 38.9 H 0.0 **** 0.0
27458 H 52.355 20.542 38.985 H 0.0 **** 0.0
27459 H 52.701 21.656 40.33 H 0.0 **** 0.0
27460 H 53.547 21.848 38.776 H 0.0 **** 0.0
27461 C 78.866 20.988 31.747 C 0.0 **** 0.0
27462 H 78.252 21.0 32.647 H 0.0 **** 0.0
27463 H 78.28 20.602 30.913 H 0.0 **** 0.0
27464 H 79.734 20.348 31.908 H 0.0 **** 0.0
27465 H 79.199 22.001 31.521 H 0.0 **** 0.0
27466 C 0.913 57.436 43.037 C 0.0 **** 0.0
27467 H 0.824 56.36 42.89 H 0.0 **** 0.0
27468 H 0.155 57.948 42.443 H 0.0 **** 0.0
27469 H 1.904 57.765 42.723 H 0.0 **** 0.0
27470 H 0.769 57.672 44.092 H 0.0 **** 0.0
27471 C 87.66 8.808 1.118 C 0.0 **** 0.0
27472 H 87.302 9.583 0.441 H 0.0 **** 0.0
27473 H 88.438 8.225 0.624 H 0.0 **** 0.0
27474 H 86.832 8.153 1.391 H 0.0 **** 0.0
27475 H 88.068 9.27 2.017 H 0.0 **** 0.0
27476 C 5.164 14.101 52.387 C 0.0 **** 0.0
27477 H 4.139 14.457 52.287 H 0.0 **** 0.0
27478 H 5.81 14.659 51.709 H 0.0 **** 0.0
27479 H 5.206 13.041 52.14 H 0.0 **** 0.0
27480 H 5.501 14.249 53.414 H 0.0 **** 0.0
27481 C 57.776 53.811 85.679 C 0.0 **** 0.0
27482 H 57.857 53.503 86.722 H 0.0 **** 0.0
27483 H 58.774 53.889 85.245 H 0.0 **** 0.0
27484 H 57.279 54.779 85.624 H 0.0 **** 0.0
27485 H 57.196 53.072 85.126 H 0.0 **** 0.0
27486 C 21.956 18.219 90.76 C 0.0 **** 0.0
27487 H 21.814 17.561 91.617 H 0.0 **** 0.0
27488 H 21.125 18.923 90.701 H 0.0 **** 0.0
27489 H 21.993 17.624 89.847 H 0.0 **** 0.0
27490 H 22.89 18.768 90.874 H 0.0 **** 0.0
27491 C 73.755 15.055 85.239 C 0.0 **** 0.0
27492 H 73.138 14.157 85.216 H 0.0 **** 0.0
27493 H 73.968 15.375 84.218 H 0.0 **** 0.0
27494 H 74.691 14.84 85.755 H 0.0 **** 0.0
27495 H 73.224 15.848 85.765 H 0.0 **** 0.0
27496 C 5.064 4.693 84.557 C 0.0 **** 0.0
27497 H 5.146 4.657 83.47 H 0.0 **** 0.0
27498 H 4.011 4.721 84.841 H 0.0 **** 0.0
27499 H 5.565 5.586 84.929 H 0.0 **** 0.0
27500 H 5.533 3.807 84.985 H 0.0 **** 0.0
27501 C 44.29 69.954 32.863 C 0.0 **** 0.0
27502 H 44.139 69.862 33.939 H 0.0 **** 0.0
27503 H 43.507 69.404 32.339 H 0.0 **** 0.0
27504 H 45.264 69.544 32.597 H 0.0 **** 0.0
27505 H 44.248 71.005 32.579 H 0.0 **** 0.0
27506 C 20.697 48.872 50.108 C 0.0 **** 0.0
27507 H 21.566 48.774 49.458 H 0.0 **** 0.0
27508 H 20.801 48.199 50.959 H 0.0 **** 0.0
27509 H 19.796 48.617 49.55 H 0.0 **** 0.0
27510 H 20.624 49.9 50.464 H 0.0 **** 0.0
27511 C 41.948 77.912 20.562 C 0.0 **** 0.0
27512 H 40.917 78.263 20.597 H 0.0 **** 0.0
27513 H 42.58 78.686 20.125 H 0.0 **** 0.0
27514 H 42.004 77.01 19.952 H 0.0 **** 0.0
27515 H 42.29 77.69 21.572 H 0.0 **** 0.0
27516 C 86.096 27.56 34.858 C 0.0 **** 0.0
27517 H 86.094 27.873 33.813 H 0.0 **** 0.0
27518 H 85.142 27.82 35.317 H 0.0 **** 0.0
27519 H 86.904 28.067 35.386 H 0.0 **** 0.0
27520 H 86.245 26.482 34.913 H 0.0 **** 0.0
27521 C 41.868 95.389 92.978 C 0.0 **** 0.0
27522 H 41.641 95.89 93.919 H 0.0 **** 0.0
27523 H 42.865 94.952 93.03 H 0.0 **** 0.0
27524 H 41.83 96.113 92.163 H 0.0 **** 0.0
27525 H 41.135 94.603 92.8 H 0.0 **** 0.0
27526 C 4.799 51.524 67.708 C 0.0 **** 0.0
27527 H 4.757 52.505 67.234 H 0.0 **** 0.0
27528 H 4.238 51.548 68.642 H 0.0 **** 0.0
27529 H 5.837 51.264 67.914 H 0.0 **** 0.0
27530 H 4.363 50.781 67.041 H 0.0 **** 0.0
27531 C 41.202 93.127 48.036 C 0.0 **** 0.0
27532 H 41.261 93.085 46.949 H 0.0 **** 0.0
27533 H 40.263 93.595 48.331 H 0.0 **** 0.0
27534 H 42.037 93.71 48.423 H 0.0 **** 0.0
27535 H 41.246 92.116 48.441 H 0.0 **** 0.0
27536 C 79.475 81.361 10.978 C 0.0 **** 0.0
27537 H 78.974 81.589 11.919 H 0.0 **** 0.0
27538 H 79.298 82.169 10.268 H 0.0 **** 0.0
27539 H 79.081 80.429 10.574 H 0.0 **** 0.0
27540 H 80.546 81.258 11.153 H 0.0 **** 0.0
27541 C 1.028 83.386 70.686 C 0.0 **** 0.0
27542 H -0.024 83.467 70.411 H 0.0 **** 0.0
27543 H 1.473 82.534 70.173 H 0.0 **** 0.0
27544 H 1.111 83.246 71.764 H 0.0 **** 0.0
27545 H 1.549 84.298 70.396 H 0.0 **** 0.0
27546 C 36.002 98.303 57.522 C 0.0 **** 0.0
27547 H 35.663 98.992 56.749 H 0.0 **** 0.0
27548 H 36.948 98.656 57.934 H 0.0 **** 0.0
27549 H 36.141 97.312 57.089 H 0.0 **** 0.0
27550 H 35.257 98.251 58.315 H 0.0 **** 0.0
27551 C 4.505 40.484 10.583 C 0.0 **** 0.0
27552 H 4.032 40.408 9.604 H 0.0 **** 0.0
27553 H 5.257 41.273 10.562 H 0.0 **** 0.0
27554 H 4.98 39.535 10.831 H 0.0 **** 0.0
27555 H 3.75 40.721 11.333 H 0.0 **** 0.0
27556 C 39.03 95.039 88.441 C 0.0 **** 0.0
27557 H 38.935 95.042 87.355 H 0.0 **** 0.0
27558 H 38.587 94.127 88.841 H 0.0 **** 0.0
27559 H 38.512 95.906 88.852 H 0.0 **** 0.0
27560 H 40.084 95.083 88.713 H 0.0 **** 0.0
27561 C 75.362 71.993 10.782 C 0.0 **** 0.0
27562 H 75.512 72.027 11.862 H 0.0 **** 0.0
27563 H 75.637 71.007 10.409 H 0.0 **** 0.0
27564 H 75.985 72.75 10.305 H 0.0 **** 0.0
27565 H 74.314 72.189 10.556 H 0.0 **** 0.0
27566 C 53.192 51.546 16.171 C 0.0 **** 0.0
27567 H 53.895 51.727 16.985 H 0.0 **** 0.0
27568 H 53.666 51.796 15.221 H 0.0 **** 0.0
27569 H 52.307 52.167 16.311 H 0.0 **** 0.0
27570 H 52.903 50.495 16.168 H 0.0 **** 0.0
27571 C 11.533 70.247 82.444 C 0.0 **** 0.0
27572 H 11.857 69.286 82.842 H 0.0 **** 0.0
27573 H 12.282 71.006 82.673 H 0.0 **** 0.0
27574 H 10.582 70.526 82.898 H 0.0 **** 0.0
27575 H 11.411 70.17 81.364 H 0.0 **** 0.0
27576 C 58.664 29.4 25.959 C 0.0 **** 0.0
27577 H 58.255 28.415 26.184 H 0.0 **** 0.0
27578 H 58.049 30.165 26.434 H 0.0 **** 0.0
27579 H 58.667 29.554 24.88 H 0.0 **** 0.0
27580 H 59.683 29.465 26.339 H 0.0 **** 0.0
27581 C 69.935 73.371 28.406 C 0.0 **** 0.0
27582 H 69.083 73.092 27.787 H 0.0 **** 0.0
27583 H 69.815 74.399 28.747 H 0.0 **** 0.0
27584 H 70.851 73.286 27.822 H 0.0 **** 0.0
27585 H 69.99 72.706 29.268 H 0.0 **** 0.0
27586 C 39.703 48.849 92.9 C 0.0 **** 0.0
27587 H 40.26 49.342 92.104 H 0.0 **** 0.0
27588 H 40.054 47.822 93.007 H 0.0 **** 0.0
27589 H 38.641 48.846 92.653 H 0.0 **** 0.0
27590 H 39.857 49.385 93.837 H 0.0 **** 0.0
27591 C 6.524 35.641 88.167 C 0.0 **** 0.0
27592 H 6.42 36.725 88.194 H 0.0 **** 0.0
27593 H 6.754 35.273 89.167 H 0.0 **** 0.0
27594 H 7.33 35.371 87.485 H 0.0 **** 0.0
27595 H 5.591 35.195 87.821 H 0.0 **** 0.0
27596 C 84.571 30.997 28.265 C 0.0 **** 0.0
27597 H 83.944 31.889 28.297 H 0.0 **** 0.0
27598 H 84.743 30.638 29.28 H 0.0 **** 0.0
27599 H 85.526 31.242 27.8 H 0.0 **** 0.0
27600 H 84.071 30.223 27.684 H 0.0 **** 0.0
27601 C 45.675 97.431 0.741 C 0.0 **** 0.0
27602 H 44.984 96.727 1.205 H 0.0 **** 0.0
27603 H 46.291 97.895 1.512 H 0.0 **** 0.0
27604 H 45.109 98.201 0.215 H 0.0 **** 0.0
27605 H 46.313 96.902 0.034 H 0.0 **** 0.0
27606 C 19.964 67.951 88.513 C 0.0 **** 0.0
27607 H 20.059 67.195 87.733 H 0.0 **** 0.0
27608 H 18.924 68.01 88.836 H 0.0 **** 0.0
27609 H 20.28 68.918 88.122 H 0.0 **** 0.0
27610 H 20.593 67.678 89.36 H 0.0 **** 0.0
27611 C 25.469 62.861 22.769 C 0.0 **** 0.0
27612 H 25.802 62.737 23.8 H 0.0 **** 0.0
27613 H 25.697 63.873 22.434 H 0.0 **** 0.0
27614 H 24.394 62.692 22.712 H 0.0 **** 0.0
27615 H 25.984 62.142 22.132 H 0.0 **** 0.0
27616 C 45.438 77.506 75.012 C 0.0 **** 0.0
27617 H 44.8 78.211 74.478 H 0.0 **** 0.0
27618 H 44.882 76.589 75.208 H 0.0 **** 0.0
27619 H 45.755 77.949 75.956 H 0.0 **** 0.0
27620 H 46.314 77.278 74.405 H 0.0 **** 0.0
27621 C 6.701 43.09 34.314 C 0.0 **** 0.0
27622 H 7.534 42.989 33.618 H 0.0 **** 0.0
27623 H 6.463 44.146 34.445 H 0.0 **** 0.0
27624 H 6.976 42.657 35.275 H 0.0 **** 0.0
27625 H 5.83 42.568 33.916 H 0.0 **** 0.0
27626 C 88.438 87.422 50.61 C 0.0 **** 0.0
27627 H 88.794 87.064 49.645 H 0.0 **** 0.0
27628 H 87.508 86.914 50.866 H 0.0 **** 0.0
27629 H 88.262 88.496 50.557 H 0.0 **** 0.0
27630 H 89.188 87.214 51.374 H 0.0 **** 0.0
27631 C 57.993 23.447 78.777 C 0.0 **** 0.0
27632 H 58.114 23.304 79.851 H 0.0 **** 0.0
27633 H 58.62 22.732 78.243 H 0.0 **** 0.0
27634 H 58.29 24.462 78.51 H 0.0 **** 0.0
27635 H 56.949 23.29 78.505 H 0.0 **** 0.0
27636 C 13.524 56.016 22.319 C 0.0 **** 0.0
27637 H 13.985 55.606 21.421 H 0.0 **** 0.0
27638 H 13.266 57.062 22.151 H 0.0 **** 0.0
27639 H 14.223 55.943 23.152 H 0.0 **** 0.0
27640 H 12.621 55.452 22.553 H 0.0 **** 0.0
27641 C 66.164 28.667 25.469 C 0.0 **** 0.0
27642 H 65.842 27.98 26.252 H 0.0 **** 0.0
27643 H 66.23 29.676 25.877 H 0.0 **** 0.0
27644 H 65.441 28.651 24.653 H 0.0 **** 0.0
27645 H 67.141 28.36 25.095 H 0.0 **** 0.0
27646 C 12.854 74.428 94.083 C 0.0 **** 0.0
27647 H 12.524 73.393 93.987 H 0.0 **** 0.0
27648 H 13.576 74.505 94.896 H 0.0 **** 0.0
27649 H 11.995 75.064 94.299 H 0.0 **** 0.0
27650 H 13.319 74.749 93.151 H 0.0 **** 0.0
27651 C 45.388 63.809 55.162 C 0.0 **** 0.0
27652 H 45.393 63.778 54.073 H 0.0 **** 0.0
27653 H 45.314 62.795 55.554 H 0.0 **** 0.0
27654 H 44.534 64.394 55.505 H 0.0 **** 0.0
27655 H 46.309 64.271 55.517 H 0.0 **** 0.0
27656 C 94.909 42.635 68.318 C 0.0 **** 0.0
27657 H 94.709 42.454 67.262 H 0.0 **** 0.0
27658 H 95.986 42.679 68.481 H 0.0 **** 0.0
27659 H 94.484 41.826 68.912 H 0.0 **** 0.0
27660 H 94.457 43.581 68.616 H 0.0 **** 0.0
27661 C 83.514 79.944 67.46 C 0.0 **** 0.0
27662 H 83.156 80.621 66.685 H 0.0 **** 0.0
27663 H 82.668 79.411 67.895 H 0.0 **** 0.0
27664 H 84.022 80.516 68.237 H 0.0 **** 0.0
27665 H 84.209 79.227 67.023 H 0.0 **** 0.0
27666 C 21.671 86.232 33.763 C 0.0 **** 0.0
27667 H 22.079 87.126 33.291 H 0.0 **** 0.0
27668 H 20.595 86.191 33.593 H 0.0 **** 0.0
27669 H 21.869 86.265 34.835 H 0.0 **** 0.0
27670 H 22.141 85.348 33.333 H 0.0 **** 0.0
27671 C 70.326 53.704 79.431 C 0.0 **** 0.0
27672 H 70.332 53.789 78.345 H 0.0 **** 0.0
27673 H 70.728 52.733 79.721 H 0.0 **** 0.0
27674 H 69.304 53.799 79.798 H 0.0 **** 0.0
27675 H 70.942 54.495 79.861 H 0.0 **** 0.0
27676 C 92.27 2.403 29.007 C 0.0 **** 0.0
27677 H 91.972 1.634 29.72 H 0.0 **** 0.0
27678 H 91.428 2.641 28.357 H 0.0 **** 0.0
27679 H 93.102 2.038 28.406 H 0.0 **** 0.0
27680 H 92.577 3.299 29.547 H 0.0 **** 0.0
27681 C 56.752 24.971 83.337 C 0.0 **** 0.0
27682 H 56.687 24.122 84.017 H 0.0 **** 0.0
27683 H 55.997 25.71 83.604 H 0.0 **** 0.0
27684 H 56.583 24.631 82.315 H 0.0 **** 0.0
27685 H 57.743 25.42 83.411 H 0.0 **** 0.0
27686 C 52.912 56.376 72.949 C 0.0 **** 0.0
27687 H 52.737 55.617 72.187 H 0.0 **** 0.0
27688 H 53.708 56.043 73.617 H 0.0 **** 0.0
27689 H 51.998 56.532 73.523 H 0.0 **** 0.0
27690 H 53.206 57.31 72.471 H 0.0 **** 0.0
27691 C 80.643 0.437 82.424 C 0.0 **** 0.0
27692 H 79.664 0.002 82.621 H 0.0 **** 0.0
27693 H 81.345 0.115 83.194 H 0.0 **** 0.0
27694 H 80.566 1.524 82.435 H 0.0 **** 0.0
27695 H 80.998 0.107 81.448 H 0.0 **** 0.0
27696 C 62.68 97.829 85.926 C 0.0 **** 0.0
27697 H 62.603 96.806 85.557 H 0.0 **** 0.0
27698 H 63.358 97.856 86.779 H 0.0 **** 0.0
27699 H 61.694 98.178 86.234 H 0.0 **** 0.0
27700 H 63.064 98.473 85.135 H 0.0 **** 0.0
27701 C 77.026 68.042 10.468 C 0.0 **** 0.0
27702 H 77.791 67.688 9.777 H 0.0 **** 0.0
27703 H 76.04 67.872 10.036 H 0.0 **** 0.0
27704 H 77.165 69.108 10.649 H 0.0 **** 0.0
27705 H 77.108 67.499 11.41 H 0.0 **** 0.0
27706 C 6.221 60.901 44.829 C 0.0 **** 0.0
27707 H 6.28 61.632 44.023 H 0.0 **** 0.0
27708 H 6.021 61.413 45.771 H 0.0 **** 0.0
27709 H 7.167 60.364 44.902 H 0.0 **** 0.0
27710 H 5.418 60.195 44.621 H 0.0 **** 0.0
27711 C 60.166 30.109 18.246 C 0.0 **** 0.0
27712 H 59.946 30.734 17.381 H 0.0 **** 0.0
27713 H 59.944 29.069 18.008 H 0.0 **** 0.0
27714 H 59.554 30.428 19.09 H 0.0 **** 0.0
27715 H 61.22 30.206 18.505 H 0.0 **** 0.0
27716 C 82.718 74.028 49.495 C 0.0 **** 0.0
27717 H 82.26 74.211 50.467 H 0.0 **** 0.0
27718 H 83.776 73.803 49.629 H 0.0 **** 0.0
27719 H 82.61 74.914 48.87 H 0.0 **** 0.0
27720 H 82.225 73.182 49.015 H 0.0 **** 0.0
27721 C 17.029 89.365 38.218 C 0.0 **** 0.0
27722 H 17.391 88.949 37.278 H 0.0 **** 0.0
27723 H 15.94 89.41 38.2 H 0.0 **** 0.0
27724 H 17.433 90.368 38.351 H 0.0 **** 0.0
27725 H 17.353 88.73 39.044 H 0.0 **** 0.0
27726 C 68.975 83.003 73.976 C 0.0 **** 0.0
27727 H 69.408 82.617 74.899 H 0.0 **** 0.0
27728 H 67.906 82.786 73.959 H 0.0 **** 0.0
27729 H 69.457 82.528 73.122 H 0.0 **** 0.0
27730 H 69.128 84.081 73.927 H 0.0 **** 0.0
27731 C 90.775 92.326 89.507 C 0.0 **** 0.0
27732 H 89.797 92.622 89.128 H 0.0 **** 0.0
27733 H 91.412 93.207 89.595 H 0.0 **** 0.0
27734 H 91.231 91.615 88.819 H 0.0 **** 0.0
27735 H 90.66 91.861 90.486 H 0.0 **** 0.0
27736 C 34.877 42.128 87.763 C 0.0 **** 0.0
27737 H 35.332 43.107 87.915 H 0.0 **** 0.0
27738 H 34.09 42.205 87.012 H 0.0 **** 0.0
27739 H 34.451 41.775 88.702 H 0.0 **** 0.0
27740 H 35.637 41.424 87.422 H 0.0 **** 0.0
27741 C 40.639 16.74 89.14 C 0.0 **** 0.0
27742 H 41.377 16.044 89.539 H 0.0 **** 0.0
27743 H 41.049 17.241 88.263 H 0.0 **** 0.0
27744 H 40.392 17.482 89.9 H 0.0 **** 0.0
27745 H 39.739 16.194 88.86 H 0.0 **** 0.0
27746 C 81.0 9.6 30.688 C 0.0 **** 0.0
27747 H 80.731 8.642 30.243 H 0.0 **** 0.0
27748 H 81.915 9.97 30.225 H 0.0 **** 0.0
27749 H 81.161 9.47 31.758 H 0.0 **** 0.0
27750 H 80.195 10.315 30.525 H 0.0 **** 0.0
27751 C 21.756 3.676 75.586 C 0.0 **** 0.0
27752 H 21.39 4.606 76.021 H 0.0 **** 0.0
27753 H 21.155 2.843 75.953 H 0.0 **** 0.0
27754 H 22.797 3.527 75.872 H 0.0 **** 0.0
27755 H 21.681 3.728 74.5 H 0.0 **** 0.0
27756 C 40.676 85.591 72.399 C 0.0 **** 0.0
27757 H 40.685 85.567 73.489 H 0.0 **** 0.0
27758 H 39.699 85.272 72.037 H 0.0 **** 0.0
27759 H 41.444 84.92 72.016 H 0.0 **** 0.0
27760 H 40.877 86.607 72.057 H 0.0 **** 0.0
27761 C 62.457 20.651 33.148 C 0.0 **** 0.0
27762 H 62.26 20.96 34.174 H 0.0 **** 0.0
27763 H 62.935 19.671 33.149 H 0.0 **** 0.0
27764 H 63.116 21.376 32.67 H 0.0 **** 0.0
27765 H 61.518 20.596 32.598 H 0.0 **** 0.0
27766 C 87.674 90.321 62.76 C 0.0 **** 0.0
27767 H 88.189 90.703 63.642 H 0.0 **** 0.0
27768 H 88.371 89.739 62.157 H 0.0 **** 0.0
27769 H 87.293 91.157 62.172 H 0.0 **** 0.0
27770 H 86.844 89.687 63.07 H 0.0 **** 0.0
27771 C 28.171 11.702 32.346 C 0.0 **** 0.0
27772 H 27.453 12.415 31.943 H 0.0 **** 0.0
27773 H 27.654 10.783 32.624 H 0.0 **** 0.0
27774 H 28.653 12.129 33.226 H 0.0 **** 0.0
27775 H 28.926 11.479 31.591 H 0.0 **** 0.0
27776 C 32.812 52.59 91.05 C 0.0 **** 0.0
27777 H 31.872 52.24 91.477 H 0.0 **** 0.0
27778 H 32.606 53.316 90.263 H 0.0 **** 0.0
27779 H 33.358 51.744 90.631 H 0.0 **** 0.0
27780 H 33.412 53.059 91.83 H 0.0 **** 0.0
27781 C 55.472 40.121 8.254 C 0.0 **** 0.0
27782 H 55.887 39.611 9.123 H 0.0 **** 0.0
27783 H 55.582 41.198 8.379 H 0.0 **** 0.0
27784 H 54.416 39.872 8.157 H 0.0 **** 0.0
27785 H 56.004 39.802 7.358 H 0.0 **** 0.0
27786 C 59.21 18.508 95.682 C 0.0 **** 0.0
27787 H 59.011 19.032 96.617 H 0.0 **** 0.0
27788 H 59.03 17.441 95.819 H 0.0 **** 0.0
27789 H 60.248 18.667 95.39 H 0.0 **** 0.0
27790 H 58.551 18.891 94.903 H 0.0 **** 0.0
27791 C 62.909 69.18 63.926 C 0.0 **** 0.0
27792 H 62.296 70.025 64.24 H 0.0 **** 0.0
27793 H 62.266 68.333 63.688 H 0.0 **** 0.0
27794 H 63.59 68.905 64.731 H 0.0 **** 0.0
27795 H 63.485 69.459 63.043 H 0.0 **** 0.0
27796 C 72.738 22.11 42.602 C 0.0 **** 0.0
27797 H 72.356 21.753 41.645 H 0.0 **** 0.0
27798 H 72.017 22.796 43.047 H 0.0 **** 0.0
27799 H 73.684 22.627 42.446 H 0.0 **** 0.0
27800 H 72.892 21.262 43.27 H 0.0 **** 0.0
27801 C 10.75 84.169 9.396 C 0.0 **** 0.0
27802 H 10.749 84.169 8.306 H 0.0 **** 0.0
27803 H 9.985 84.854 9.76 H 0.0 **** 0.0
27804 H 11.727 84.489 9.758 H 0.0 **** 0.0
27805 H 10.541 83.163 9.759 H 0.0 **** 0.0
27806 C 37.386 46.317 62.503 C 0.0 **** 0.0
27807 H 36.82 47.24 62.387 H 0.0 **** 0.0
27808 H 37.451 46.06 63.56 H 0.0 **** 0.0
27809 H 38.39 46.454 62.1 H 0.0 **** 0.0
27810 H 36.885 45.513 61.963 H 0.0 **** 0.0
27811 C 98.071 30.316 75.04 C 0.0 **** 0.0
27812 H 98.924 29.99 75.635 H 0.0 **** 0.0
27813 H 98.389 31.098 74.35 H 0.0 **** 0.0
27814 H 97.296 30.706 75.699 H 0.0 **** 0.0
27815 H 97.678 29.471 74.475 H 0.0 **** 0.0
27816 C 32.721 47.822 37.565 C 0.0 **** 0.0
27817 H 32.258 47.496 36.633 H 0.0 **** 0.0
27818 H 33.791 47.959 37.411 H 0.0 **** 0.0
27819 H 32.558 47.067 38.334 H 0.0 **** 0.0
27820 H 32.275 48.765 37.882 H 0.0 **** 0.0
27821 C 82.916 73.168 18.8 C 0.0 **** 0.0
27822 H 83.882 73.62 18.575 H 0.0 **** 0.0
27823 H 82.769 72.291 18.169 H 0.0 **** 0.0
27824 H 82.124 73.892 18.607 H 0.0 **** 0.0
27825 H 82.889 72.871 19.848 H 0.0 **** 0.0
27826 C 37.741 92.81 72.409 C 0.0 **** 0.0
27827 H 37.811 93.642 71.708 H 0.0 **** 0.0
27828 H 37.388 91.922 71.884 H 0.0 **** 0.0
27829 H 37.043 93.064 73.205 H 0.0 **** 0.0
27830 H 38.724 92.612 72.836 H 0.0 **** 0.0
27831 C 87.482 64.604 7.714 C 0.0 **** 0.0
27832 H 86.718 63.826 7.732 H 0.0 **** 0.0
27833 H 87.93 64.648 6.721 H 0.0 **** 0.0
27834 H 88.252 64.374 8.45 H 0.0 **** 0.0
27835 H 87.026 65.565 7.951 H 0.0 **** 0.0
27836 C 65.391 57.595 48.323 C 0.0 **** 0.0
27837 H 65.273 57.887 49.366 H 0.0 **** 0.0
27838 H 65.985 56.683 48.267 H 0.0 **** 0.0
27839 H 65.896 58.392 47.777 H 0.0 **** 0.0
27840 H 64.41 57.418 47.883 H 0.0 **** 0.0
27841 C 53.148 45.947 40.044 C 0.0 **** 0.0
27842 H 53.282 45.702 38.99 H 0.0 **** 0.0
27843 H 52.741 46.955 40.133 H 0.0 **** 0.0
27844 H 54.11 45.897 40.554 H 0.0 **** 0.0
27845 H 52.459 45.235 40.498 H 0.0 **** 0.0
27846 C 8.981 85.54 25.825 C 0.0 **** 0.0
27847 H 9.061 85.751 24.759 H 0.0 **** 0.0
27848 H 7.986 85.815 26.175 H 0.0 **** 0.0
27849 H 9.73 86.117 26.367 H 0.0 **** 0.0
27850 H 9.146 84.476 25.998 H 0.0 **** 0.0
27851 C 81.025 54.389 54.62 C 0.0 **** 0.0
27852 H 80.443 54.671 53.743 H 0.0 **** 0.0
27853 H 81.704 53.577 54.36 H 0.0 **** 0.0
27854 H 80.353 54.062 55.413 H 0.0 **** 0.0
27855 H 81.601 55.248 54.964 H 0.0 **** 0.0
27856 C 34.95 97.391 4.36 C 0.0 **** 0.0
27857 H 35.14 97.252 5.424 H 0.0 **** 0.0
27858 H 34.516 98.377 4.195 H 0.0 **** 0.0
27859 H 34.256 96.625 4.012 H 0.0 **** 0.0
27860 H 35.887 97.309 3.81 H 0.0 **** 0.0
27861 C 31.008 96.886 87.469 C 0.0 **** 0.0
27862 H 30.757 97.853 87.032 H 0.0 **** 0.0
27863 H 31.495 96.263 86.718 H 0.0 **** 0.0
27864 H 30.098 96.396 87.814 H 0.0 **** 0.0
27865 H 31.683 97.034 88.312 H 0.0 **** 0.0
27866 C 13.172 16.898 24.764 C 0.0 **** 0.0
27867 H 13.106 17.205 25.808 H 0.0 **** 0.0
27868 H 13.686 17.669 24.19 H 0.0 **** 0.0
27869 H 12.168 16.754 24.363 H 0.0 **** 0.0
27870 H 13.728 15.963 24.695 H 0.0 **** 0.0
27871 C 9.332 57.656 9.636 C 0.0 **** 0.0
27872 H 8.567 58.307 10.058 H 0.0 **** 0.0
27873 H 9.959 57.265 10.438 H 0.0 **** 0.0
27874 H 9.947 58.224 8.938 H 0.0 **** 0.0
27875 H 8.856 56.829 9.11 H 0.0 **** 0.0
27876 C 25.964 55.098 52.311 C 0.0 **** 0.0
27877 H 26.779 55.751 52.622 H 0.0 **** 0.0
27878 H 26.315 54.066 52.289 H 0.0 **** 0.0
27879 H 25.626 55.388 51.316 H 0.0 **** 0.0
27880 H 25.138 55.187 53.016 H 0.0 **** 0.0
27881 C 21.264 21.339 7.555 C 0.0 **** 0.0
27882 H 21.204 21.209 6.474 H 0.0 **** 0.0
27883 H 21.48 22.383 7.783 H 0.0 **** 0.0
27884 H 22.059 20.708 7.953 H 0.0 **** 0.0
27885 H 20.314 21.057 8.008 H 0.0 **** 0.0
27886 C 37.417 36.926 57.967 C 0.0 **** 0.0
27887 H 38.072 36.207 57.475 H 0.0 **** 0.0
27888 H 36.455 36.457 58.177 H 0.0 **** 0.0
27889 H 37.268 37.787 57.315 H 0.0 **** 0.0
27890 H 37.874 37.253 58.901 H 0.0 **** 0.0
27891 C 57.427 61.832 40.455 C 0.0 **** 0.0
27892 H 57.365 61.588 41.515 H 0.0 **** 0.0
27893 H 58.246 61.274 40.001 H 0.0 **** 0.0
27894 H 57.607 62.901 40.339 H 0.0 **** 0.0
27895 H 56.49 61.566 39.966 H 0.0 **** 0.0
27896 C 33.484 81.468 34.291 C 0.0 **** 0.0
27897 H 33.089 80.48 34.53 H 0.0 **** 0.0
27898 H 34.534 81.38 34.009 H 0.0 **** 0.0
27899 H 33.395 82.115 35.164 H 0.0 **** 0.0
27900 H 32.919 81.894 33.463 H 0.0 **** 0.0
27901 C 30.975 77.408 65.897 C 0.0 **** 0.0
27902 H 30.968 77.347 66.985 H 0.0 **** 0.0
27903 H 30.278 78.181 65.572 H 0.0 **** 0.0
27904 H 30.675 76.448 65.478 H 0.0 **** 0.0
27905 H 31.98 77.656 65.554 H 0.0 **** 0.0
27906 C 1.821 69.074 20.273 C 0.0 **** 0.0
27907 H 2.214 69.95 19.758 H 0.0 **** 0.0
27908 H 2.205 69.049 21.293 H 0.0 **** 0.0
27909 H 2.133 68.172 19.746 H 0.0 **** 0.0
27910 H 0.732 69.123 20.295 H 0.0 **** 0.0
27911 C 15.814 70.664 92.381 C 0.0 **** 0.0
27912 H 15.163 70.635 93.255 H 0.0 **** 0.0
27913 H 16.613 69.933 92.5 H 0.0 **** 0.0
27914 H 16.244 71.661 92.282 H 0.0 **** 0.0
27915 H 15.234 70.429 91.489 H 0.0 **** 0.0
27916 C 9.472 45.629 86.379 C 0.0 **** 0.0
27917 H 10.028 46.495 86.74 H 0.0 **** 0.0
27918 H 10.128 45.004 85.773 H 0.0 **** 0.0
27919 H 8.63 45.965 85.775 H 0.0 **** 0.0
27920 H 9.104 45.054 87.229 H 0.0 **** 0.0
27921 C 10.782 13.171 34.277 C 0.0 **** 0.0
27922 H 10.213 13.832 33.623 H 0.0 **** 0.0
27923 H 11.658 12.8 33.745 H 0.0 **** 0.0
27924 H 10.155 12.331 34.577 H 0.0 **** 0.0
27925 H 11.1 13.722 35.162 H 0.0 **** 0.0
27926 C 79.568 85.144 58.561 C 0.0 **** 0.0
27927 H 79.001 85.925 59.066 H 0.0 **** 0.0
27928 H 79.438 84.2 59.091 H 0.0 **** 0.0
27929 H 80.625 85.411 58.55 H 0.0 **** 0.0
27930 H 79.209 85.038 57.537 H 0.0 **** 0.0
27931 C 44.035 28.167 71.703 C 0.0 **** 0.0
27932 H 42.991 27.855 71.675 H 0.0 **** 0.0
27933 H 44.47 28.07 70.708 H 0.0 **** 0.0
27934 H 44.584 27.538 72.403 H 0.0 **** 0.0
27935 H 44.094 29.207 72.026 H 0.0 **** 0.0
27936 C 37.691 0.884 11.8 C 0.0 **** 0.0
27937 H 38.427 0.413 12.451 H 0.0 **** 0.0
27938 H 36.694 0.532 12.064 H 0.0 **** 0.0
27939 H 37.906 0.627 10.763 H 0.0 **** 0.0
27940 H 37.739 1.966 11.923 H 0.0 **** 0.0
27941 C 38.351 84.363 5.908 C 0.0 **** 0.0
27942 H 37.526 84.966 5.526 H 0.0 **** 0.0
27943 H 38.446 83.457 5.309 H 0.0 **** 0.0
27944 H 38.154 84.095 6.945 H 0.0 **** 0.0
27945 H 39.276 84.937 5.85 H 0.0 **** 0.0
27946 C 61.549 50.852 70.715 C 0.0 **** 0.0
27947 H 61.046 50.039 70.19 H 0.0 **** 0.0
27948 H 62.492 51.077 70.215 H 0.0 **** 0.0
27949 H 61.746 50.552 71.744 H 0.0 **** 0.0
27950 H 60.913 51.737 70.709 H 0.0 **** 0.0
27951 C 20.009 70.398 90.617 C 0.0 **** 0.0
27952 H 19.873 70.988 91.523 H 0.0 **** 0.0
27953 H 19.434 69.475 90.695 H 0.0 **** 0.0
27954 H 21.066 70.159 90.496 H 0.0 **** 0.0
27955 H 19.665 70.971 89.756 H 0.0 **** 0.0
27956 C 28.602 89.103 47.356 C 0.0 **** 0.0
27957 H 28.204 89.973 47.878 H 0.0 **** 0.0
27958 H 28.793 88.304 48.073 H 0.0 **** 0.0
27959 H 29.532 89.373 46.856 H 0.0 **** 0.0
27960 H 27.877 88.762 46.616 H 0.0 **** 0.0
27961 C 1.481 19.05 43.282 C 0.0 **** 0.0
27962 H 1.441 19.196 44.361 H 0.0 **** 0.0
27963 H 1.119 19.948 42.781 H 0.0 **** 0.0
27964 H 0.854 18.202 43.006 H 0.0 **** 0.0
27965 H 2.51 18.855 42.98 H 0.0 **** 0.0
27966 C 78.711 81.182 80.342 C 0.0 **** 0.0
27967 H 78.741 81.552 81.367 H 0.0 **** 0.0
27968 H 79.55 80.507 80.175 H 0.0 **** 0.0
27969 H 78.775 82.021 79.651 H 0.0 **** 0.0
27970 H 77.775 80.647 80.178 H 0.0 **** 0.0
27971 C 50.574 42.983 29.454 C 0.0 **** 0.0
27972 H 50.138 42.418 30.278 H 0.0 **** 0.0
27973 H 50.137 42.646 28.513 H 0.0 **** 0.0
27974 H 51.652 42.821 29.433 H 0.0 **** 0.0
27975 H 50.368 44.044 29.591 H 0.0 **** 0.0
27976 C 76.637 90.436 30.196 C 0.0 **** 0.0
27977 H 76.218 90.287 29.201 H 0.0 **** 0.0
27978 H 75.831 90.473 30.928 H 0.0 **** 0.0
27979 H 77.193 91.374 30.219 H 0.0 **** 0.0
27980 H 77.308 89.61 30.434 H 0.0 **** 0.0
27981 C 52.732 3.875 1.017 C 0.0 **** 0.0
27982 H 52.573 3.55 -0.011 H 0.0 **** 0.0
27983 H 52.42 3.084 1.7 H 0.0 **** 0.0
27984 H 52.146 4.773 1.209 H 0.0 **** 0.0
27985 H 53.789 4.091 1.17 H 0.0 **** 0.0
27986 C 9.449 32.658 20.779 C 0.0 **** 0.0
27987 H 9.384 31.599 21.027 H 0.0 **** 0.0
27988 H 10.494 32.97 20.791 H 0.0 **** 0.0
27989 H 8.887 33.238 21.511 H 0.0 **** 0.0
27990 H 9.032 32.824 19.785 H 0.0 **** 0.0
27991 C 25.356 98.13 30.925 C 0.0 **** 0.0
27992 H 24.808 98.673 30.155 H 0.0 **** 0.0
27993 H 25.811 97.241 30.487 H 0.0 **** 0.0
27994 H 24.67 97.833 31.718 H 0.0 **** 0.0
27995 H 26.134 98.771 31.338 H 0.0 **** 0.0
27996 C 30.728 91.693 32.545 C 0.0 **** 0.0
27997 H 30.386 91.018 33.329 H 0.0 **** 0.0
27998 H 30.894 91.129 31.627 H 0.0 **** 0.0
27999 H 31.659 92.168 32.854 H 0.0 **** 0.0
28000 H 29.971 92.458 32.369 H 0.0 **** 0.0
28001 C 63.95 60.755 65.752 C 0.0 **** 0.0
28002 H 63.023 60.361 66.166 H 0.0 **** 0.0
28003 H 63.888 61.842 65.693 H 0.0 **** 0.0
28004 H 64.106 60.346 64.754 H 0.0 **** 0.0
28005 H 64.784 60.473 66.394 H 0.0 **** 0.0
28006 C 73.327 48.346 30.538 C 0.0 **** 0.0
28007 H 73.366 47.352 30.092 H 0.0 **** 0.0
28008 H 73.101 49.081 29.765 H 0.0 **** 0.0
28009 H 74.29 48.579 30.991 H 0.0 **** 0.0
28010 H 72.55 48.371 31.302 H 0.0 **** 0.0
28011 C 89.283 90.893 75.684 C 0.0 **** 0.0
28012 H 89.639 91.221 74.708 H 0.0 **** 0.0
28013 H 88.78 89.931 75.583 H 0.0 **** 0.0
28014 H 88.584 91.629 76.081 H 0.0 **** 0.0
28015 H 90.129 90.791 76.364 H 0.0 **** 0.0
28016 C 51.793 84.686 75.424 C 0.0 **** 0.0
28017 H 51.824 84.665 76.513 H 0.0 **** 0.0
28018 H 51.179 85.524 75.094 H 0.0 **** 0.0
28019 H 51.364 83.754 75.055 H 0.0 **** 0.0
28020 H 52.804 84.8 75.034 H 0.0 **** 0.0
28021 C 67.042 32.915 86.871 C 0.0 **** 0.0
28022 H 66.968 32.835 87.955 H 0.0 **** 0.0
28023 H 66.22 33.525 86.495 H 0.0 **** 0.0
28024 H 66.989 31.92 86.429 H 0.0 **** 0.0
28025 H 67.992 33.38 86.605 H 0.0 **** 0.0
28026 C 58.525 88.909 98.135 C 0.0 **** 0.0
28027 H 59.157 89.567 97.539 H 0.0 **** 0.0
28028 H 58.214 88.058 97.528 H 0.0 **** 0.0
28029 H 57.645 89.456 98.471 H 0.0 **** 0.0
28030 H 59.085 88.554 99.0 H 0.0 **** 0.0
28031 C 76.502 70.908 52.696 C 0.0 **** 0.0
28032 H 76.439 70.625 51.646 H 0.0 **** 0.0
28033 H 75.824 70.286 53.281 H 0.0 **** 0.0
28034 H 76.223 71.955 52.808 H 0.0 **** 0.0
28035 H 77.523 70.764 53.05 H 0.0 **** 0.0
28036 C 94.404 54.072 5.059 C 0.0 **** 0.0
28037 H 94.31 54.352 4.01 H 0.0 **** 0.0
28038 H 94.385 52.985 5.147 H 0.0 **** 0.0
28039 H 93.576 54.497 5.625 H 0.0 **** 0.0
28040 H 95.347 54.452 5.453 H 0.0 **** 0.0
28041 C 36.698 87.938 80.847 C 0.0 **** 0.0
28042 H 36.04 87.177 80.429 H 0.0 **** 0.0
28043 H 37.537 87.456 81.35 H 0.0 **** 0.0
28044 H 36.143 88.543 81.564 H 0.0 **** 0.0
28045 H 37.072 88.575 80.046 H 0.0 **** 0.0
28046 C 10.152 25.264 67.394 C 0.0 **** 0.0
28047 H 10.375 24.205 67.523 H 0.0 **** 0.0
28048 H 9.608 25.409 66.461 H 0.0 **** 0.0
28049 H 11.083 25.83 67.365 H 0.0 **** 0.0
28050 H 9.542 25.61 68.229 H 0.0 **** 0.0
28051 C 68.035 94.392 93.095 C 0.0 **** 0.0
28052 H 68.26 94.512 92.035 H 0.0 **** 0.0
28053 H 67.087 93.864 93.207 H 0.0 **** 0.0
28054 H 67.963 95.372 93.565 H 0.0 **** 0.0
28055 H 68.829 93.817 93.571 H 0.0 **** 0.0
28056 C 39.681 81.564 92.546 C 0.0 **** 0.0
28057 H 39.18 81.848 91.62 H 0.0 **** 0.0
28058 H 40.309 82.387 92.887 H 0.0 **** 0.0
28059 H 40.299 80.684 92.368 H 0.0 **** 0.0
28060 H 38.934 81.336 93.306 H 0.0 **** 0.0
28061 C 31.742 40.732 24.047 C 0.0 **** 0.0
28062 H 32.774 40.396 24.149 H 0.0 **** 0.0
28063 H 31.147 39.943 23.586 H 0.0 **** 0.0
28064 H 31.711 41.624 23.422 H 0.0 **** 0.0
28065 H 31.337 40.964 25.032 H 0.0 **** 0.0
28066 C 61.423 78.723 26.585 C 0.0 **** 0.0
28067 H 62.136 78.74 27.409 H 0.0 **** 0.0
28068 H 61.762 78.017 25.827 H 0.0 **** 0.0
28069 H 61.35 79.719 26.148 H 0.0 **** 0.0
28070 H 60.446 78.417 26.957 H 0.0 **** 0.0
28071 C 38.635 43.84 45.476 C 0.0 **** 0.0
28072 H 37.967 43.466 46.252 H 0.0 **** 0.0
28073 H 38.387 44.878 45.253 H 0.0 **** 0.0
28074 H 38.519 43.236 44.576 H 0.0 **** 0.0
28075 H 39.666 43.779 45.824 H 0.0 **** 0.0
28076 C 40.488 87.797 89.56 C 0.0 **** 0.0
28077 H 40.767 87.115 90.364 H 0.0 **** 0.0
28078 H 40.611 88.826 89.899 H 0.0 **** 0.0
28079 H 39.448 87.626 89.284 H 0.0 **** 0.0
28080 H 41.128 87.619 88.695 H 0.0 **** 0.0
28081 C 65.184 82.61 32.17 C 0.0 **** 0.0
28082 H 65.19 82.694 31.083 H 0.0 **** 0.0
28083 H 66.035 82.01 32.492 H 0.0 **** 0.0
28084 H 64.259 82.131 32.492 H 0.0 **** 0.0
28085 H 65.252 83.604 32.612 H 0.0 **** 0.0
28086 C 16.609 28.21 30.45 C 0.0 **** 0.0
28087 H 16.927 29.229 30.232 H 0.0 **** 0.0
28088 H 15.521 28.172 30.503 H 0.0 **** 0.0
28089 H 17.031 27.894 31.405 H 0.0 **** 0.0
28090 H 16.958 27.544 29.661 H 0.0 **** 0.0
28091 C 12.952 71.294 52.67 C 0.0 **** 0.0
28092 H 12.888 70.849 51.677 H 0.0 **** 0.0
28093 H 12.801 70.522 53.424 H 0.0 **** 0.0
28094 H 12.184 72.06 52.774 H 0.0 **** 0.0
28095 H 13.935 71.746 52.802 H 0.0 **** 0.0
28096 C 70.304 57.901 59.422 C 0.0 **** 0.0
28097 H 70.201 58.281 60.439 H 0.0 **** 0.0
28098 H 69.808 58.581 58.729 H 0.0 **** 0.0
28099 H 69.846 56.915 59.355 H 0.0 **** 0.0
28100 H 71.361 57.829 59.167 H 0.0 **** 0.0
28101 C 78.625 35.486 2.062 C 0.0 **** 0.0
28102 H 78.425 35.468 0.991 H 0.0 **** 0.0
28103 H 79.353 34.714 2.309 H 0.0 **** 0.0
28104 H 77.699 35.3 2.607 H 0.0 **** 0.0
28105 H 79.021 36.462 2.341 H 0.0 **** 0.0
28106 C 6.088 56.303 5.807 C 0.0 **** 0.0
28107 H 6.022 56.037 6.862 H 0.0 **** 0.0
28108 H 7.077 56.044 5.429 H 0.0 **** 0.0
28109 H 5.924 57.375 5.692 H 0.0 **** 0.0
28110 H 5.33 55.757 5.246 H 0.0 **** 0.0
28111 C 16.445 92.38 91.644 C 0.0 **** 0.0
28112 H 16.451 91.29 91.626 H 0.0 **** 0.0
28113 H 16.386 92.725 92.676 H 0.0 **** 0.0
28114 H 15.584 92.748 91.087 H 0.0 **** 0.0
28115 H 17.361 92.755 91.187 H 0.0 **** 0.0
28116 C 11.196 26.08 36.777 C 0.0 **** 0.0
28117 H 11.032 26.206 35.707 H 0.0 **** 0.0
28118 H 12.259 26.182 36.997 H 0.0 **** 0.0
28119 H 10.854 25.092 37.083 H 0.0 **** 0.0
28120 H 10.638 26.842 37.322 H 0.0 **** 0.0
28121 C 54.833 53.436 24.105 C 0.0 **** 0.0
28122 H 55.686 52.76 24.16 H 0.0 **** 0.0
28123 H 55.171 54.42 23.779 H 0.0 **** 0.0
28124 H 54.371 53.518 25.089 H 0.0 **** 0.0
28125 H 54.106 53.047 23.393 H 0.0 **** 0.0
28126 C 73.445 27.878 59.967 C 0.0 **** 0.0
28127 H 73.939 27.907 58.996 H 0.0 **** 0.0
28128 H 74.081 28.357 60.713 H 0.0 **** 0.0
28129 H 73.268 26.841 60.253 H 0.0 **** 0.0
28130 H 72.494 28.406 59.907 H 0.0 **** 0.0
28131 C 74.595 78.56 30.155 C 0.0 **** 0.0
28132 H 74.596 78.299 31.213 H 0.0 **** 0.0
28133 H 73.95 79.424 29.994 H 0.0 **** 0.0
28134 H 74.226 77.716 29.572 H 0.0 **** 0.0
28135 H 75.611 78.802 29.84 H 0.0 **** 0.0
28136 C 50.17 63.597 56.032 C 0.0 **** 0.0
28137 H 49.129 63.725 56.329 H 0.0 **** 0.0
28138 H 50.455 64.403 55.355 H 0.0 **** 0.0
28139 H 50.288 62.639 55.527 H 0.0 **** 0.0
28140 H 50.806 63.623 56.917 H 0.0 **** 0.0
28141 C 93.052 41.12 44.746 C 0.0 **** 0.0
28142 H 92.675 41.632 45.632 H 0.0 **** 0.0
28143 H 93.986 40.613 44.99 H 0.0 **** 0.0
28144 H 93.229 41.847 43.954 H 0.0 **** 0.0
28145 H 92.318 40.388 44.41 H 0.0 **** 0.0
28146 C 25.044 38.08 14.154 C 0.0 **** 0.0
28147 H 24.374 37.347 14.604 H 0.0 **** 0.0
28148 H 26.072 37.85 14.432 H 0.0 **** 0.0
28149 H 24.784 39.076 14.511 H 0.0 **** 0.0
28150 H 24.944 38.045 13.069 H 0.0 **** 0.0
28151 C 70.179 81.847 87.367 C 0.0 **** 0.0
28152 H 69.883 82.547 86.586 H 0.0 **** 0.0
28153 H 70.396 82.396 88.283 H 0.0 **** 0.0
28154 H 71.069 81.303 87.049 H 0.0 **** 0.0
28155 H 69.368 81.142 87.549 H 0.0 **** 0.0
28156 C 12.355 89.053 62.471 C 0.0 **** 0.0
28157 H 11.827 89.019 61.518 H 0.0 **** 0.0
28158 H 12.193 88.118 63.009 H 0.0 **** 0.0
28159 H 11.979 89.885 63.066 H 0.0 **** 0.0
28160 H 13.422 89.188 62.29 H 0.0 **** 0.0
28161 C 81.651 82.191 46.609 C 0.0 **** 0.0
28162 H 80.997 82.184 47.481 H 0.0 **** 0.0
28163 H 82.419 81.426 46.726 H 0.0 **** 0.0
28164 H 82.122 83.169 46.516 H 0.0 **** 0.0
28165 H 81.065 81.984 45.714 H 0.0 **** 0.0
28166 C 14.923 13.997 44.319 C 0.0 **** 0.0
28167 H 14.079 13.636 44.907 H 0.0 **** 0.0
28168 H 14.77 13.741 43.27 H 0.0 **** 0.0
28169 H 15.841 13.531 44.677 H 0.0 **** 0.0
28170 H 15.0 15.079 44.422 H 0.0 **** 0.0
28171 C 45.599 26.481 23.994 C 0.0 **** 0.0
28172 H 45.538 26.567 22.91 H 0.0 **** 0.0
28173 H 44.703 25.987 24.37 H 0.0 **** 0.0
28174 H 45.679 27.475 24.434 H 0.0 **** 0.0
28175 H 46.478 25.894 24.263 H 0.0 **** 0.0
28176 C 34.786 12.794 95.031 C 0.0 **** 0.0
28177 H 35.843 12.832 95.296 H 0.0 **** 0.0
28178 H 34.285 12.043 95.642 H 0.0 **** 0.0
28179 H 34.685 12.533 93.978 H 0.0 **** 0.0
28180 H 34.332 13.769 95.209 H 0.0 **** 0.0
28181 C 28.38 4.597 12.648 C 0.0 **** 0.0
28182 H 28.734 3.958 13.457 H 0.0 **** 0.0
28183 H 28.384 5.636 12.978 H 0.0 **** 0.0
28184 H 27.366 4.307 12.373 H 0.0 **** 0.0
28185 H 29.036 4.487 11.785 H 0.0 **** 0.0
28186 C 75.391 85.053 23.16 C 0.0 **** 0.0
28187 H 75.287 84.403 24.028 H 0.0 **** 0.0
28188 H 76.267 84.755 22.585 H 0.0 **** 0.0
28189 H 75.507 86.085 23.492 H 0.0 **** 0.0
28190 H 74.501 84.97 22.536 H 0.0 **** 0.0
28191 C 21.302 32.121 38.802 C 0.0 **** 0.0
28192 H 22.154 32.503 38.239 H 0.0 **** 0.0
28193 H 21.415 32.383 39.855 H 0.0 **** 0.0
28194 H 21.255 31.037 38.7 H 0.0 **** 0.0
28195 H 20.383 32.562 38.415 H 0.0 **** 0.0
28196 C 84.752 5.738 23.625 C 0.0 **** 0.0
28197 H 84.673 5.741 22.538 H 0.0 **** 0.0
28198 H 85.749 5.407 23.916 H 0.0 **** 0.0
28199 H 84.008 5.058 24.04 H 0.0 **** 0.0
28200 H 84.576 6.744 24.005 H 0.0 **** 0.0
28201 C 40.013 46.666 47.505 C 0.0 **** 0.0
28202 H 39.004 47.018 47.286 H 0.0 **** 0.0
28203 H 40.482 46.314 46.586 H 0.0 **** 0.0
28204 H 39.964 45.85 48.225 H 0.0 **** 0.0
28205 H 40.599 47.485 47.922 H 0.0 **** 0.0
28206 C 95.385 48.983 13.992 C 0.0 **** 0.0
28207 H 95.275 49.109 15.069 H 0.0 **** 0.0
28208 H 94.456 48.592 13.576 H 0.0 **** 0.0
28209 H 96.196 48.284 13.789 H 0.0 **** 0.0
28210 H 95.611 49.946 13.535 H 0.0 **** 0.0
28211 C 10.746 44.818 81.272 C 0.0 **** 0.0
28212 H 11.045 45.798 81.646 H 0.0 **** 0.0
28213 H 11.034 44.052 81.992 H 0.0 **** 0.0
28214 H 11.241 44.627 80.32 H 0.0 **** 0.0
28215 H 9.666 44.798 81.131 H 0.0 **** 0.0
28216 C 44.189 97.96 5.134 C 0.0 **** 0.0
28217 H 43.596 98.232 4.261 H 0.0 **** 0.0
28218 H 44.821 97.105 4.891 H 0.0 **** 0.0
28219 H 43.525 97.699 5.958 H 0.0 **** 0.0
28220 H 44.815 98.804 5.425 H 0.0 **** 0.0
28221 C 44.941 16.309 30.689 C 0.0 **** 0.0
28222 H 44.442 16.832 31.505 H 0.0 **** 0.0
28223 H 46.011 16.256 30.892 H 0.0 **** 0.0
28224 H 44.774 16.849 29.757 H 0.0 **** 0.0
28225 H 44.537 15.301 30.603 H 0.0 **** 0.0
28226 C 91.322 76.089 98.149 C 0.0 **** 0.0
28227 H 91.016 75.174 97.641 H 0.0 **** 0.0
28228 H 92.227 75.898 98.727 H 0.0 **** 0.0
28229 H 90.526 76.416 98.818 H 0.0 **** 0.0
28230 H 91.519 76.866 97.411 H 0.0 **** 0.0
28231 C 52.54 76.669 74.135 C 0.0 **** 0.0
28232 H 53.431 77.289 74.041 H 0.0 **** 0.0
28233 H 51.875 77.1 74.883 H 0.0 **** 0.0
28234 H 52.828 75.663 74.441 H 0.0 **** 0.0
28235 H 52.026 76.623 73.175 H 0.0 **** 0.0
28236 C 38.489 1.982 50.347 C 0.0 **** 0.0
28237 H 38.73 2.387 51.33 H 0.0 **** 0.0
28238 H 37.448 2.2 50.11 H 0.0 **** 0.0
28239 H 38.642 0.903 50.352 H 0.0 **** 0.0
28240 H 39.136 2.438 49.598 H 0.0 **** 0.0
28241 C 89.755 81.294 83.461 C 0.0 **** 0.0
28242 H 89.874 81.086 84.524 H 0.0 **** 0.0
28243 H 90.088 82.311 83.25 H 0.0 **** 0.0
28244 H 88.705 81.192 83.186 H 0.0 **** 0.0
28245 H 90.352 80.588 82.884 H 0.0 **** 0.0
28246 C 0.598 26.786 34.328 C 0.0 **** 0.0
28247 H -0.01 26.651 33.433 H 0.0 **** 0.0
28248 H -0.005 27.248 35.11 H 0.0 **** 0.0
28249 H 1.447 27.428 34.096 H 0.0 **** 0.0
28250 H 0.958 25.816 34.672 H 0.0 **** 0.0
28251 C 26.395 27.065 18.723 C 0.0 **** 0.0
28252 H 26.742 26.942 19.749 H 0.0 **** 0.0
28253 H 26.665 28.058 18.365 H 0.0 **** 0.0
28254 H 25.312 26.947 18.69 H 0.0 **** 0.0
28255 H 26.862 26.31 18.09 H 0.0 **** 0.0
28256 C 81.601 69.175 1.708 C 0.0 **** 0.0
28257 H 80.954 69.037 0.842 H 0.0 **** 0.0
28258 H 80.997 69.458 2.57 H 0.0 **** 0.0
28259 H 82.326 69.961 1.497 H 0.0 **** 0.0
28260 H 82.126 68.243 1.921 H 0.0 **** 0.0
28261 C 97.199 67.173 33.248 C 0.0 **** 0.0
28262 H 98.236 67.255 32.923 H 0.0 **** 0.0
28263 H 97.062 66.239 33.793 H 0.0 **** 0.0
28264 H 96.544 67.184 32.377 H 0.0 **** 0.0
28265 H 96.954 68.013 33.897 H 0.0 **** 0.0
28266 C 94.185 90.642 37.176 C 0.0 **** 0.0
28267 H 94.228 91.015 36.153 H 0.0 **** 0.0
28268 H 95.105 90.103 37.405 H 0.0 **** 0.0
28269 H 93.334 89.97 37.282 H 0.0 **** 0.0
28270 H 94.074 91.48 37.864 H 0.0 **** 0.0
28271 C 55.75 18.982 55.105 C 0.0 **** 0.0
28272 H 54.755 18.681 55.435 H 0.0 **** 0.0
28273 H 56.479 18.235 55.421 H 0.0 **** 0.0
28274 H 56.002 19.946 55.545 H 0.0 **** 0.0
28275 H 55.761 19.064 54.018 H 0.0 **** 0.0
28276 C 50.959 41.213 87.808 C 0.0 **** 0.0
28277 H 50.521 41.464 86.842 H 0.0 **** 0.0
28278 H 51.647 40.376 87.687 H 0.0 **** 0.0
28279 H 50.168 40.935 88.505 H 0.0 **** 0.0
28280 H 51.5 42.075 88.197 H 0.0 **** 0.0
28281 C 6.052 38.093 79.229 C 0.0 **** 0.0
28282 H 5.947 37.754 78.198 H 0.0 **** 0.0
28283 H 5.908 39.172 79.273 H 0.0 **** 0.0
28284 H 7.049 37.843 79.593 H 0.0 **** 0.0
28285 H 5.304 37.6 79.851 H 0.0 **** 0.0
28286 C 66.884 57.893 87.149 C 0.0 **** 0.0
28287 H 66.534 57.964 86.119 H 0.0 **** 0.0
28288 H 66.896 56.847 87.457 H 0.0 **** 0.0
28289 H 66.215 58.456 87.8 H 0.0 **** 0.0
28290 H 67.891 58.305 87.22 H 0.0 **** 0.0
28291 C 8.163 82.773 53.752 C 0.0 **** 0.0
28292 H 8.712 83.71 53.846 H 0.0 **** 0.0
28293 H 7.145 82.91 54.118 H 0.0 **** 0.0
28294 H 8.659 82.001 54.34 H 0.0 **** 0.0
28295 H 8.136 82.472 52.705 H 0.0 **** 0.0
28296 C 53.631 84.377 53.282 C 0.0 **** 0.0
28297 H 52.916 84.168 52.486 H 0.0 **** 0.0
28298 H 53.405 85.346 53.727 H 0.0 **** 0.0
28299 H 54.64 84.394 52.869 H 0.0 **** 0.0
28300 H 53.563 83.601 54.044 H 0.0 **** 0.0
28301 C 61.245 38.534 86.188 C 0.0 **** 0.0
28302 H 60.258 38.32 85.777 H 0.0 **** 0.0
28303 H 61.881 37.655 86.083 H 0.0 **** 0.0
28304 H 61.151 38.791 87.243 H 0.0 **** 0.0
28305 H 61.689 39.371 85.649 H 0.0 **** 0.0
28306 C 61.09 75.515 33.153 C 0.0 **** 0.0
28307 H 60.875 75.671 34.21 H 0.0 **** 0.0
28308 H 60.356 76.051 32.551 H 0.0 **** 0.0
28309 H 61.039 74.45 32.926 H 0.0 **** 0.0
28310 H 62.089 75.888 32.927 H 0.0 **** 0.0
28311 C 29.409 23.844 17.222 C 0.0 **** 0.0
28312 H 29.509 22.982 16.563 H 0.0 **** 0.0
28313 H 28.861 24.633 16.707 H 0.0 **** 0.0
28314 H 30.399 24.208 17.497 H 0.0 **** 0.0
28315 H 28.866 23.552 18.121 H 0.0 **** 0.0
28316 C 33.311 66.675 57.702 C 0.0 **** 0.0
28317 H 33.523 66.851 56.647 H 0.0 **** 0.0
28318 H 33.976 65.898 58.081 H 0.0 **** 0.0
28319 H 32.276 66.354 57.815 H 0.0 **** 0.0
28320 H 33.471 67.595 58.263 H 0.0 **** 0.0
28321 C 12.869 88.103 24.032 C 0.0 **** 0.0
28322 H 12.449 87.953 23.037 H 0.0 **** 0.0
28323 H 13.649 87.363 24.211 H 0.0 **** 0.0
28324 H 12.082 87.99 24.779 H 0.0 **** 0.0
28325 H 13.294 89.104 24.101 H 0.0 **** 0.0
28326 C 13.734 21.993 92.451 C 0.0 **** 0.0
28327 H 13.261 21.531 93.318 H 0.0 **** 0.0
28328 H 14.254 22.9 92.762 H 0.0 **** 0.0
28329 H 12.973 22.245 91.713 H 0.0 **** 0.0
28330 H 14.449 21.297 92.013 H 0.0 **** 0.0
28331 C 29.139 37.974 70.475 C 0.0 **** 0.0
28332 H 29.164 37.462 69.513 H 0.0 **** 0.0
28333 H 30.037 37.726 71.041 H 0.0 **** 0.0
28334 H 28.258 37.657 71.032 H 0.0 **** 0.0
28335 H 29.098 39.051 70.312 H 0.0 **** 0.0
28336 C 78.552 56.248 13.656 C 0.0 **** 0.0
28337 H 78.604 55.413 14.354 H 0.0 **** 0.0
28338 H 78.044 55.93 12.746 H 0.0 **** 0.0
28339 H 79.562 56.58 13.412 H 0.0 **** 0.0
28340 H 78.001 57.07 14.113 H 0.0 **** 0.0
28341 C 68.269 4.396 30.982 C 0.0 **** 0.0
28342 H 68.338 4.387 29.895 H 0.0 **** 0.0
28343 H 68.037 3.393 31.34 H 0.0 **** 0.0
28344 H 67.481 5.083 31.29 H 0.0 **** 0.0
28345 H 69.22 4.722 31.404 H 0.0 **** 0.0
28346 C 85.305 80.766 62.77 C 0.0 **** 0.0
28347 H 85.488 81.198 63.753 H 0.0 **** 0.0
28348 H 85.846 81.337 62.016 H 0.0 **** 0.0
28349 H 84.237 80.796 62.552 H 0.0 **** 0.0
28350 H 85.649 79.731 62.758 H 0.0 **** 0.0
28351 C 19.024 86.673 77.772 C 0.0 **** 0.0
28352 H 19.759 85.986 78.191 H 0.0 **** 0.0
28353 H 18.107 86.13 77.544 H 0.0 **** 0.0
28354 H 19.421 87.116 76.858 H 0.0 **** 0.0
28355 H 18.81 87.461 78.494 H 0.0 **** 0.0
28356 C 95.166 74.995 5.631 C 0.0 **** 0.0
28357 H 95.506 74.679 4.645 H 0.0 **** 0.0
28358 H 94.117 74.726 5.757 H 0.0 **** 0.0
28359 H 95.278 76.075 5.724 H 0.0 **** 0.0
28360 H 95.763 74.501 6.397 H 0.0 **** 0.0
28361 C 66.329 18.299 14.407 C 0.0 **** 0.0
28362 H 66.303 17.813 13.432 H 0.0 **** 0.0
28363 H 65.545 17.884 15.04 H 0.0 **** 0.0
28364 H 66.169 19.37 14.284 H 0.0 **** 0.0
28365 H 67.3 18.128 14.872 H 0.0 **** 0.0
28366 C 66.285 97.26 12.798 C 0.0 **** 0.0
28367 H 66.597 97.101 11.766 H 0.0 **** 0.0
28368 H 65.551 98.065 12.835 H 0.0 **** 0.0
28369 H 67.151 97.53 13.401 H 0.0 **** 0.0
28370 H 65.841 96.344 13.188 H 0.0 **** 0.0
28371 C 12.059 47.549 37.151 C 0.0 **** 0.0
28372 H 12.922 47.388 36.506 H 0.0 **** 0.0
28373 H 11.444 46.649 37.166 H 0.0 **** 0.0
28374 H 11.472 48.384 36.769 H 0.0 **** 0.0
28375 H 12.398 47.775 38.162 H 0.0 **** 0.0
28376 C 91.043 53.291 47.517 C 0.0 **** 0.0
28377 H 90.22 53.224 46.805 H 0.0 **** 0.0
28378 H 90.894 52.563 48.315 H 0.0 **** 0.0
28379 H 91.075 54.294 47.941 H 0.0 **** 0.0
28380 H 91.983 53.082 47.005 H 0.0 **** 0.0
28381 C 85.052 87.877 25.141 C 0.0 **** 0.0
28382 H 85.713 88.176 24.327 H 0.0 **** 0.0
28383 H 84.019 87.892 24.794 H 0.0 **** 0.0
28384 H 85.167 88.57 25.975 H 0.0 **** 0.0
28385 H 85.312 86.87 25.467 H 0.0 **** 0.0
28386 C 89.61 6.467 60.881 C 0.0 **** 0.0
28387 H 88.902 7.222 61.225 H 0.0 **** 0.0
28388 H 90.619 6.756 61.172 H 0.0 **** 0.0
28389 H 89.554 6.385 59.795 H 0.0 **** 0.0
28390 H 89.362 5.506 61.331 H 0.0 **** 0.0
28391 C 96.134 48.013 64.581 C 0.0 **** 0.0
28392 H 95.926 48.785 65.322 H 0.0 **** 0.0
28393 H 95.44 48.115 63.746 H 0.0 **** 0.0
28394 H 96.012 47.03 65.037 H 0.0 **** 0.0
28395 H 97.157 48.122 64.22 H 0.0 **** 0.0
28396 C 1.383 34.812 55.113 C 0.0 **** 0.0
28397 H 0.518 34.313 55.552 H 0.0 **** 0.0
28398 H 1.758 34.221 54.277 H 0.0 **** 0.0
28399 H 2.164 34.913 55.867 H 0.0 **** 0.0
28400 H 1.09 35.8 54.758 H 0.0 **** 0.0
28401 C 80.205 48.335 64.049 C 0.0 **** 0.0
28402 H 79.457 47.548 63.961 H 0.0 **** 0.0
28403 H 79.711 49.283 64.264 H 0.0 **** 0.0
28404 H 80.757 48.417 63.113 H 0.0 **** 0.0
28405 H 80.894 48.092 64.857 H 0.0 **** 0.0
28406 C 63.091 22.171 93.796 C 0.0 **** 0.0
28407 H 63.379 22.194 92.745 H 0.0 **** 0.0
28408 H 63.774 21.523 94.346 H 0.0 **** 0.0
28409 H 62.074 21.788 93.886 H 0.0 **** 0.0
28410 H 63.136 23.18 94.207 H 0.0 **** 0.0
28411 C 64.869 49.17 8.358 C 0.0 **** 0.0
28412 H 64.407 49.346 7.387 H 0.0 **** 0.0
28413 H 64.093 49.069 9.116 H 0.0 **** 0.0
28414 H 65.516 50.01 8.61 H 0.0 **** 0.0
28415 H 65.46 48.255 8.318 H 0.0 **** 0.0
28416 C 44.398 93.025 61.427 C 0.0 **** 0.0
28417 H 43.615 93.474 62.038 H 0.0 **** 0.0
28418 H 44.229 91.951 61.353 H 0.0 **** 0.0
28419 H 45.368 93.211 61.887 H 0.0 **** 0.0
28420 H 44.378 93.466 60.43 H 0.0 **** 0.0
28421 C 64.195 60.189 96.057 C 0.0 **** 0.0
28422 H 64.942 60.557 95.354 H 0.0 **** 0.0
28423 H 64.181 60.828 96.94 H 0.0 **** 0.0
28424 H 64.443 59.169 96.35 H 0.0 **** 0.0
28425 H 63.213 60.202 95.583 H 0.0 **** 0.0
28426 C 42.192 23.735 33.957 C 0.0 **** 0.0
28427 H 41.103 23.782 33.982 H 0.0 **** 0.0
28428 H 42.603 24.475 34.644 H 0.0 **** 0.0
28429 H 42.541 23.943 32.946 H 0.0 **** 0.0
28430 H 42.519 22.739 34.256 H 0.0 **** 0.0
28431 C 60.855 46.945 46.794 C 0.0 **** 0.0
28432 H 60.857 47.9 46.27 H 0.0 **** 0.0
28433 H 61.842 46.761 47.218 H 0.0 **** 0.0
28434 H 60.606 46.147 46.094 H 0.0 **** 0.0
28435 H 60.114 46.971 47.593 H 0.0 **** 0.0
28436 C 83.391 66.39 83.907 C 0.0 **** 0.0
28437 H 83.869 66.117 82.967 H 0.0 **** 0.0
28438 H 84.136 66.804 84.587 H 0.0 **** 0.0
28439 H 82.94 65.505 84.356 H 0.0 **** 0.0
28440 H 82.618 67.135 83.718 H 0.0 **** 0.0
28441 C 12.332 21.065 85.035 C 0.0 **** 0.0
28442 H 12.596 20.088 85.44 H 0.0 **** 0.0
28443 H 11.348 21.011 84.568 H 0.0 **** 0.0
28444 H 13.072 21.361 84.292 H 0.0 **** 0.0
28445 H 12.313 21.799 85.841 H 0.0 **** 0.0
28446 C 17.409 10.987 86.866 C 0.0 **** 0.0
28447 H 17.956 11.912 87.048 H 0.0 **** 0.0
28448 H 17.483 10.723 85.811 H 0.0 **** 0.0
28449 H 16.361 11.126 87.133 H 0.0 **** 0.0
28450 H 17.836 10.187 87.472 H 0.0 **** 0.0
28451 C 41.312 13.435 50.181 C 0.0 **** 0.0
28452 H 41.262 13.416 51.27 H 0.0 **** 0.0
28453 H 42.355 13.483 49.866 H 0.0 **** 0.0
28454 H 40.779 14.31 49.808 H 0.0 **** 0.0
28455 H 40.852 12.532 49.781 H 0.0 **** 0.0
28456 C 50.597 3.713 42.001 C 0.0 **** 0.0
28457 H 49.853 4.408 41.613 H 0.0 **** 0.0
28458 H 50.217 3.243 42.909 H 0.0 **** 0.0
28459 H 51.516 4.253 42.228 H 0.0 **** 0.0
28460 H 50.802 2.946 41.254 H 0.0 **** 0.0
28461 C 84.027 41.423 1.842 C 0.0 **** 0.0
28462 H 84.603 42.142 1.26 H 0.0 **** 0.0
28463 H 84.275 40.412 1.519 H 0.0 **** 0.0
28464 H 82.963 41.603 1.69 H 0.0 **** 0.0
28465 H 84.267 41.536 2.899 H 0.0 **** 0.0
28466 C 35.194 90.13 44.195 C 0.0 **** 0.0
28467 H 34.657 90.998 43.812 H 0.0 **** 0.0
28468 H 34.491 89.456 44.685 H 0.0 **** 0.0
28469 H 35.946 90.457 44.913 H 0.0 **** 0.0
28470 H 35.68 89.611 43.369 H 0.0 **** 0.0
28471 C 17.041 79.367 9.478 C 0.0 **** 0.0
28472 H 16.825 79.985 10.349 H 0.0 **** 0.0
28473 H 16.736 79.894 8.573 H 0.0 **** 0.0
28474 H 16.492 78.428 9.554 H 0.0 **** 0.0
28475 H 18.11 79.16 9.435 H 0.0 **** 0.0
28476 C 83.272 88.711 2.014 C 0.0 **** 0.0
28477 H 83.413 89.187 2.985 H 0.0 **** 0.0
28478 H 82.361 88.113 2.032 H 0.0 **** 0.0
28479 H 84.125 88.069 1.797 H 0.0 **** 0.0
28480 H 83.188 89.477 1.244 H 0.0 **** 0.0
28481 C 24.644 40.881 75.289 C 0.0 **** 0.0
28482 H 24.468 41.054 74.227 H 0.0 **** 0.0
28483 H 23.759 41.172 75.856 H 0.0 **** 0.0
28484 H 25.497 41.475 75.617 H 0.0 **** 0.0
28485 H 24.851 39.824 75.455 H 0.0 **** 0.0
28486 C 40.739 30.858 12.796 C 0.0 **** 0.0
28487 H 41.061 30.915 13.836 H 0.0 **** 0.0
28488 H 41.277 30.055 12.293 H 0.0 **** 0.0
28489 H 40.949 31.805 12.299 H 0.0 **** 0.0
28490 H 39.668 30.658 12.759 H 0.0 **** 0.0
28491 C 28.093 19.526 84.84 C 0.0 **** 0.0
28492 H 28.522 19.847 83.891 H 0.0 **** 0.0
28493 H 28.23 18.45 84.954 H 0.0 **** 0.0
28494 H 27.029 19.761 84.855 H 0.0 **** 0.0
28495 H 28.592 20.045 85.658 H 0.0 **** 0.0
28496 C 96.02 42.971 90.302 C 0.0 **** 0.0
28497 H 96.611 43.578 89.616 H 0.0 **** 0.0
28498 H 96.188 43.311 91.324 H 0.0 **** 0.0
28499 H 96.32 41.927 90.212 H 0.0 **** 0.0
28500 H 94.963 43.068 90.055 H 0.0 **** 0.0
28501 C 88.491 88.515 71.395 C 0.0 **** 0.0
28502 H 88.028 89.144 72.155 H 0.0 **** 0.0
28503 H 89.571 88.507 71.538 H 0.0 **** 0.0
28504 H 88.258 88.909 70.406 H 0.0 **** 0.0
28505 H 88.105 87.499 71.481 H 0.0 **** 0.0
28506 C 72.31 95.655 15.657 C 0.0 **** 0.0
28507 H 73.314 95.356 15.355 H 0.0 **** 0.0
28508 H 72.055 95.17 16.599 H 0.0 **** 0.0
28509 H 71.596 95.357 14.889 H 0.0 **** 0.0
28510 H 72.276 96.737 15.784 H 0.0 **** 0.0
28511 C 67.163 80.431 18.218 C 0.0 **** 0.0
28512 H 67.295 80.878 17.233 H 0.0 **** 0.0
28513 H 66.629 81.128 18.864 H 0.0 **** 0.0
28514 H 68.14 80.211 18.65 H 0.0 **** 0.0
28515 H 66.59 79.509 18.125 H 0.0 **** 0.0
28516 C 88.795 51.656 82.304 C 0.0 **** 0.0
28517 H 88.375 50.967 83.036 H 0.0 **** 0.0
28518 H 89.316 51.091 81.531 H 0.0 **** 0.0
28519 H 89.496 52.328 82.798 H 0.0 **** 0.0
28520 H 87.992 52.237 81.85 H 0.0 **** 0.0
28521 C 65.1 54.366 70.716 C 0.0 **** 0.0
28522 H 65.1 55.143 71.481 H 0.0 **** 0.0
28523 H 66.125 54.153 70.414 H 0.0 **** 0.0
28524 H 64.529 54.708 69.852 H 0.0 **** 0.0
28525 H 64.644 53.461 71.118 H 0.0 **** 0.0
28526 C 95.914 82.457 40.96 C 0.0 **** 0.0
28527 H 95.734 82.592 39.894 H 0.0 **** 0.0
28528 H 96.177 81.416 41.155 H 0.0 **** 0.0
28529 H 95.013 82.714 41.517 H 0.0 **** 0.0
28530 H 96.733 83.104 41.275 H 0.0 **** 0.0
28531 C 94.301 14.156 41.97 C 0.0 **** 0.0
28532 H 94.162 14.125 43.051 H 0.0 **** 0.0
28533 H 93.481 14.711 41.515 H 0.0 **** 0.0
28534 H 94.316 13.14 41.577 H 0.0 **** 0.0
28535 H 95.246 14.649 41.74 H 0.0 **** 0.0
28536 C 64.504 47.952 27.632 C 0.0 **** 0.0
28537 H 64.69 47.77 26.574 H 0.0 **** 0.0
28538 H 63.501 48.359 27.759 H 0.0 **** 0.0
28539 H 65.236 48.664 28.013 H 0.0 **** 0.0
28540 H 64.589 47.015 28.182 H 0.0 **** 0.0
28541 C 54.159 16.064 3.383 C 0.0 **** 0.0
28542 H 54.736 15.165 3.168 H 0.0 **** 0.0
28543 H 53.507 16.288 2.538 H 0.0 **** 0.0
28544 H 54.839 16.9 3.549 H 0.0 **** 0.0
28545 H 53.555 15.904 4.276 H 0.0 **** 0.0
28546 C 74.632 51.61 84.859 C 0.0 **** 0.0
28547 H 75.319 51.987 85.616 H 0.0 **** 0.0
28548 H 74.807 50.545 84.707 H 0.0 **** 0.0
28549 H 74.796 52.142 83.922 H 0.0 **** 0.0
28550 H 73.605 51.767 85.19 H 0.0 **** 0.0
28551 C 66.479 21.932 35.531 C 0.0 **** 0.0
28552 H 65.974 21.652 34.607 H 0.0 **** 0.0
28553 H 67.554 21.978 35.358 H 0.0 **** 0.0
28554 H 66.266 21.19 36.301 H 0.0 **** 0.0
28555 H 66.122 22.908 35.859 H 0.0 **** 0.0
28556 C 50.161 24.111 14.19 C 0.0 **** 0.0
28557 H 50.212 24.201 13.105 H 0.0 **** 0.0
28558 H 49.155 23.808 14.483 H 0.0 **** 0.0
28559 H 50.397 25.073 14.645 H 0.0 **** 0.0
28560 H 50.879 23.364 14.527 H 0.0 **** 0.0
28561 C 81.553 12.876 87.889 C 0.0 **** 0.0
28562 H 82.474 12.68 87.338 H 0.0 **** 0.0
28563 H 81.643 12.476 88.899 H 0.0 **** 0.0
28564 H 80.717 12.397 87.38 H 0.0 **** 0.0
28565 H 81.381 13.951 87.937 H 0.0 **** 0.0
28566 C 87.754 87.2 83.81 C 0.0 **** 0.0
28567 H 87.674 87.17 82.723 H 0.0 **** 0.0
28568 H 88.132 88.174 84.119 H 0.0 **** 0.0
28569 H 88.439 86.421 84.145 H 0.0 **** 0.0
28570 H 86.771 87.034 84.251 H 0.0 **** 0.0
28571 C 24.509 97.683 98.278 C 0.0 **** 0.0
28572 H 24.398 96.947 97.481 H 0.0 **** 0.0
28573 H 24.468 98.686 97.854 H 0.0 **** 0.0
28574 H 25.467 97.537 98.776 H 0.0 **** 0.0
28575 H 23.702 97.559 99.0 H 0.0 **** 0.0
28576 C 78.565 27.142 29.818 C 0.0 **** 0.0
28577 H 78.265 26.177 29.41 H 0.0 **** 0.0
28578 H 78.722 27.848 29.001 H 0.0 **** 0.0
28579 H 79.491 27.026 30.381 H 0.0 **** 0.0
28580 H 77.783 27.517 30.477 H 0.0 **** 0.0
28581 C 63.789 60.441 60.751 C 0.0 **** 0.0
28582 H 64.014 59.474 60.301 H 0.0 **** 0.0
28583 H 62.958 60.905 60.218 H 0.0 **** 0.0
28584 H 64.666 61.084 60.688 H 0.0 **** 0.0
28585 H 63.516 60.299 61.797 H 0.0 **** 0.0
28586 C 82.999 8.231 47.604 C 0.0 **** 0.0
28587 H 83.288 8.232 48.655 H 0.0 **** 0.0
28588 H 83.518 7.425 47.085 H 0.0 **** 0.0
28589 H 83.267 9.186 47.153 H 0.0 **** 0.0
28590 H 81.922 8.081 47.524 H 0.0 **** 0.0
28591 C 42.799 53.308 58.876 C 0.0 **** 0.0
28592 H 42.762 53.385 59.963 H 0.0 **** 0.0
28593 H 41.844 53.623 58.457 H 0.0 **** 0.0
28594 H 42.999 52.275 58.592 H 0.0 **** 0.0
28595 H 43.593 53.95 58.495 H 0.0 **** 0.0
28596 C 27.807 60.439 45.184 C 0.0 **** 0.0
28597 H 28.441 60.156 46.024 H 0.0 **** 0.0
28598 H 27.973 61.488 44.94 H 0.0 **** 0.0
28599 H 26.761 60.289 45.452 H 0.0 **** 0.0
28600 H 28.052 59.822 44.32 H 0.0 **** 0.0
28601 C 69.92 69.904 3.923 C 0.0 **** 0.0
28602 H 70.0 69.937 5.01 H 0.0 **** 0.0
28603 H 70.45 70.754 3.494 H 0.0 **** 0.0
28604 H 68.869 69.948 3.635 H 0.0 **** 0.0
28605 H 70.359 68.977 3.555 H 0.0 **** 0.0
28606 C 57.371 0.48 19.622 C 0.0 **** 0.0
28607 H 57.566 0.274 18.569 H 0.0 **** 0.0
28608 H 56.425 0.023 19.912 H 0.0 **** 0.0
28609 H 57.317 1.558 19.776 H 0.0 **** 0.0
28610 H 58.177 0.066 20.228 H 0.0 **** 0.0
28611 C 64.055 82.338 94.003 C 0.0 **** 0.0
28612 H 64.045 82.347 95.093 H 0.0 **** 0.0
28613 H 64.686 83.149 93.639 H 0.0 **** 0.0
28614 H 63.039 82.472 93.63 H 0.0 **** 0.0
28615 H 64.448 81.384 93.651 H 0.0 **** 0.0
28616 C 83.986 72.559 93.016 C 0.0 **** 0.0
28617 H 84.117 72.359 91.952 H 0.0 **** 0.0
28618 H 82.931 72.469 93.275 H 0.0 **** 0.0
28619 H 84.332 73.568 93.241 H 0.0 **** 0.0
28620 H 84.565 71.839 93.594 H 0.0 **** 0.0
28621 C 38.785 54.543 30.955 C 0.0 **** 0.0
28622 H 38.814 55.384 31.648 H 0.0 **** 0.0
28623 H 39.185 54.854 29.99 H 0.0 **** 0.0
28624 H 37.755 54.209 30.832 H 0.0 **** 0.0
28625 H 39.388 53.725 31.352 H 0.0 **** 0.0
28626 C 33.754 78.98 55.496 C 0.0 **** 0.0
28627 H 33.846 78.126 54.824 H 0.0 **** 0.0
28628 H 34.709 79.504 55.549 H 0.0 **** 0.0
28629 H 33.474 78.632 56.49 H 0.0 **** 0.0
28630 H 32.988 79.658 55.119 H 0.0 **** 0.0
28631 C 24.34 52.702 30.29 C 0.0 **** 0.0
28632 H 23.671 51.915 29.944 H 0.0 **** 0.0
28633 H 24.252 53.568 29.633 H 0.0 **** 0.0
28634 H 25.368 52.338 30.275 H 0.0 **** 0.0
28635 H 24.071 52.988 31.307 H 0.0 **** 0.0
28636 C 74.235 41.469 47.814 C 0.0 **** 0.0
28637 H 74.24 41.421 46.725 H 0.0 **** 0.0
28638 H 73.211 41.376 48.177 H 0.0 **** 0.0
28639 H 74.65 42.424 48.138 H 0.0 **** 0.0
28640 H 74.839 40.655 48.216 H 0.0 **** 0.0
28641 C 94.977 29.741 74.144 C 0.0 **** 0.0
28642 H 95.471 28.799 73.905 H 0.0 **** 0.0
28643 H 95.653 30.57 73.929 H 0.0 **** 0.0
28644 H 94.712 29.754 75.201 H 0.0 **** 0.0
28645 H 94.075 29.842 73.541 H 0.0 **** 0.0
28646 C 16.617 27.791 65.911 C 0.0 **** 0.0
28647 H 17.199 27.055 65.356 H 0.0 **** 0.0
28648 H 16.526 27.474 66.949 H 0.0 **** 0.0
28649 H 15.625 27.878 65.468 H 0.0 **** 0.0
28650 H 17.12 28.758 65.869 H 0.0 **** 0.0
28651 C 75.826 59.616 13.6 C 0.0 **** 0.0
28652 H 76.438 60.419 13.189 H 0.0 **** 0.0
28653 H 75.799 58.784 12.897 H 0.0 **** 0.0
28654 H 74.813 59.982 13.769 H 0.0 **** 0.0
28655 H 76.254 59.281 14.545 H 0.0 **** 0.0
28656 C 11.26 98.407 51.917 C 0.0 **** 0.0
28657 H 11.331 98.381 53.004 H 0.0 **** 0.0
28658 H 12.138 98.907 51.507 H 0.0 **** 0.0
28659 H 10.362 98.951 51.624 H 0.0 **** 0.0
28660 H 11.21 97.388 51.532 H 0.0 **** 0.0
28661 C 18.725 14.114 90.393 C 0.0 **** 0.0
28662 H 19.256 13.892 89.467 H 0.0 **** 0.0
28663 H 19.397 13.972 91.24 H 0.0 **** 0.0
28664 H 17.87 13.446 90.491 H 0.0 **** 0.0
28665 H 18.378 15.147 90.373 H 0.0 **** 0.0
28666 C 46.354 78.882 64.325 C 0.0 **** 0.0
28667 H 46.431 78.262 63.432 H 0.0 **** 0.0
28668 H 46.065 79.894 64.04 H 0.0 **** 0.0
28669 H 47.318 78.909 64.833 H 0.0 **** 0.0
28670 H 45.602 78.464 64.993 H 0.0 **** 0.0
28671 C 81.921 26.759 22.899 C 0.0 **** 0.0
28672 H 82.623 27.593 22.879 H 0.0 **** 0.0
28673 H 81.187 26.922 23.688 H 0.0 **** 0.0
28674 H 82.463 25.833 23.09 H 0.0 **** 0.0
28675 H 81.412 26.691 21.938 H 0.0 **** 0.0
28676 C 44.51 64.828 77.768 C 0.0 **** 0.0
28677 H 44.073 65.251 78.672 H 0.0 **** 0.0
28678 H 45.49 64.41 78.0 H 0.0 **** 0.0
28679 H 44.617 65.61 77.016 H 0.0 **** 0.0
28680 H 43.861 64.041 77.385 H 0.0 **** 0.0
28681 C 29.017 81.808 66.167 C 0.0 **** 0.0
28682 H 28.068 81.331 65.923 H 0.0 **** 0.0
28683 H 29.244 82.569 65.419 H 0.0 **** 0.0
28684 H 29.809 81.059 66.174 H 0.0 **** 0.0
28685 H 28.948 82.273 67.15 H 0.0 **** 0.0
28686 C 13.242 54.796 73.812 C 0.0 **** 0.0
28687 H 12.734 55.058 72.884 H 0.0 **** 0.0
28688 H 14.04 55.514 74.004 H 0.0 **** 0.0
28689 H 13.666 53.796 73.724 H 0.0 **** 0.0
28690 H 12.528 54.818 74.636 H 0.0 **** 0.0
28691 C 76.335 71.161 38.446 C 0.0 **** 0.0
28692 H 76.912 71.958 38.915 H 0.0 **** 0.0
28693 H 75.593 70.786 39.151 H 0.0 **** 0.0
28694 H 77.004 70.35 38.156 H 0.0 **** 0.0
28695 H 75.831 71.55 37.561 H 0.0 **** 0.0
28696 C 52.657 83.992 68.507 C 0.0 **** 0.0
28697 H 53.083 83.705 67.546 H 0.0 **** 0.0
28698 H 51.651 84.384 68.355 H 0.0 **** 0.0
28699 H 53.28 84.758 68.967 H 0.0 **** 0.0
28700 H 52.613 83.12 69.159 H 0.0 **** 0.0
28701 C 69.218 42.183 95.132 C 0.0 **** 0.0
28702 H 70.178 42.21 95.647 H 0.0 **** 0.0
28703 H 68.433 41.921 95.842 H 0.0 **** 0.0
28704 H 69.253 41.439 94.337 H 0.0 **** 0.0
28705 H 69.009 43.163 94.704 H 0.0 **** 0.0
28706 C 14.224 61.55 12.206 C 0.0 **** 0.0
28707 H 13.882 60.81 12.929 H 0.0 **** 0.0
28708 H 15.293 61.716 12.334 H 0.0 **** 0.0
28709 H 13.688 62.487 12.365 H 0.0 **** 0.0
28710 H 14.03 61.188 11.196 H 0.0 **** 0.0
28711 C 72.746 46.207 62.349 C 0.0 **** 0.0
28712 H 72.169 45.296 62.509 H 0.0 **** 0.0
28713 H 73.787 46.03 62.622 H 0.0 **** 0.0
28714 H 72.339 47.007 62.967 H 0.0 **** 0.0
28715 H 72.689 46.493 61.299 H 0.0 **** 0.0
28716 C 53.746 55.668 90.106 C 0.0 **** 0.0
28717 H 54.113 55.899 89.107 H 0.0 **** 0.0
28718 H 52.708 55.99 90.195 H 0.0 **** 0.0
28719 H 54.353 56.19 90.846 H 0.0 **** 0.0
28720 H 53.81 54.593 90.277 H 0.0 **** 0.0
28721 C 94.054 79.986 52.886 C 0.0 **** 0.0
28722 H 93.939 79.865 53.963 H 0.0 **** 0.0
28723 H 94.219 79.011 52.426 H 0.0 **** 0.0
28724 H 94.908 80.633 52.683 H 0.0 **** 0.0
28725 H 93.152 80.436 52.473 H 0.0 **** 0.0
28726 C 84.917 12.623 67.976 C 0.0 **** 0.0
28727 H 84.487 12.502 66.981 H 0.0 **** 0.0
28728 H 85.837 12.042 68.046 H 0.0 **** 0.0
28729 H 84.206 12.271 68.723 H 0.0 **** 0.0
28730 H 85.137 13.676 68.151 H 0.0 **** 0.0
28731 C 7.815 56.771 50.715 C 0.0 **** 0.0
28732 H 7.603 55.83 51.224 H 0.0 **** 0.0
28733 H 7.398 57.597 51.291 H 0.0 **** 0.0
28734 H 7.364 56.756 49.722 H 0.0 **** 0.0
28735 H 8.893 56.898 50.623 H 0.0 **** 0.0
28736 C 14.747 18.881 0.938 C 0.0 **** 0.0
28737 H 14.063 18.653 1.755 H 0.0 **** 0.0
28738 H 15.516 18.11 0.883 H 0.0 **** 0.0
28739 H 15.215 19.849 1.116 H 0.0 **** 0.0
28740 H 14.194 18.912 -0.001 H 0.0 **** 0.0
28741 C 66.23 35.836 84.569 C 0.0 **** 0.0
28742 H 66.54 35.768 83.527 H 0.0 **** 0.0
28743 H 65.916 36.857 84.788 H 0.0 **** 0.0
28744 H 67.065 35.565 85.215 H 0.0 **** 0.0
28745 H 65.398 35.154 84.746 H 0.0 **** 0.0
28746 C 53.474 55.134 43.381 C 0.0 **** 0.0
28747 H 53.664 55.508 44.387 H 0.0 **** 0.0
28748 H 54.058 55.709 42.663 H 0.0 **** 0.0
28749 H 52.413 55.234 43.151 H 0.0 **** 0.0
28750 H 53.76 54.083 43.324 H 0.0 **** 0.0
28751 C 51.158 67.038 95.719 C 0.0 **** 0.0
28752 H 51.133 66.097 95.171 H 0.0 **** 0.0
28753 H 50.156 67.279 96.074 H 0.0 **** 0.0
28754 H 51.512 67.832 95.061 H 0.0 **** 0.0
28755 H 51.833 66.945 96.57 H 0.0 **** 0.0
28756 C 66.055 8.171 6.13 C 0.0 **** 0.0
28757 H 66.108 9.111 6.68 H 0.0 **** 0.0
28758 H 66.735 8.21 5.279 H 0.0 **** 0.0
28759 H 65.036 8.015 5.776 H 0.0 **** 0.0
28760 H 66.341 7.35 6.787 H 0.0 **** 0.0
28761 C 20.837 33.754 23.476 C 0.0 **** 0.0
28762 H 21.163 33.562 22.453 H 0.0 **** 0.0
28763 H 20.902 34.822 23.682 H 0.0 **** 0.0
28764 H 21.477 33.209 24.17 H 0.0 **** 0.0
28765 H 19.805 33.422 23.596 H 0.0 **** 0.0
28766 C 6.032 23.695 52.753 C 0.0 **** 0.0
28767 H 5.801 23.666 53.818 H 0.0 **** 0.0
28768 H 6.523 22.766 52.462 H 0.0 **** 0.0
28769 H 6.694 24.536 52.548 H 0.0 **** 0.0
28770 H 5.109 23.812 52.185 H 0.0 **** 0.0
28771 C 37.634 19.548 55.781 C 0.0 **** 0.0
28772 H 37.261 18.697 56.351 H 0.0 **** 0.0
28773 H 37.039 20.431 56.017 H 0.0 **** 0.0
28774 H 37.559 19.333 54.715 H 0.0 **** 0.0
28775 H 38.676 19.731 56.043 H 0.0 **** 0.0
28776 C 38.047 75.538 16.053 C 0.0 **** 0.0
28777 H 38.013 76.626 16.116 H 0.0 **** 0.0
28778 H 38.104 75.238 15.006 H 0.0 **** 0.0
28779 H 37.147 75.12 16.503 H 0.0 **** 0.0
28780 H 38.924 75.171 16.585 H 0.0 **** 0.0
28781 C 90.107 91.543 69.306 C 0.0 **** 0.0
28782 H 90.997 92.052 68.934 H 0.0 **** 0.0
28783 H 89.952 91.802 70.353 H 0.0 **** 0.0
28784 H 90.24 90.466 69.212 H 0.0 **** 0.0
28785 H 89.241 91.855 68.722 H 0.0 **** 0.0
28786 C 3.589 98.534 89.59 C 0.0 **** 0.0
28787 H 3.458 98.673 90.663 H 0.0 **** 0.0
28788 H 2.757 98.999 89.06 H 0.0 **** 0.0
28789 H 3.616 97.469 89.362 H 0.0 **** 0.0
28790 H 4.524 98.997 89.276 H 0.0 **** 0.0
28791 C 86.469 0.872 84.888 C 0.0 **** 0.0
28792 H 86.469 0.922 83.799 H 0.0 **** 0.0
28793 H 85.78 0.094 85.216 H 0.0 **** 0.0
28794 H 86.153 1.833 85.296 H 0.0 **** 0.0
28795 H 87.474 0.641 85.241 H 0.0 **** 0.0
28796 C 42.25 59.616 60.161 C 0.0 **** 0.0
28797 H 42.191 59.791 61.235 H 0.0 **** 0.0
28798 H 41.384 60.062 59.673 H 0.0 **** 0.0
28799 H 42.264 58.543 59.969 H 0.0 **** 0.0
28800 H 43.162 60.067 59.769 H 0.0 **** 0.0
28801 C 68.113 47.353 70.044 C 0.0 **** 0.0
28802 H 67.885 47.75 69.055 H 0.0 **** 0.0
28803 H 67.183 47.136 70.572 H 0.0 **** 0.0
28804 H 68.688 48.088 70.607 H 0.0 **** 0.0
28805 H 68.695 46.437 69.943 H 0.0 **** 0.0
28806 C 9.187 14.972 72.719 C 0.0 **** 0.0
28807 H 9.562 14.523 73.639 H 0.0 **** 0.0
28808 H 8.192 14.581 72.503 H 0.0 **** 0.0
28809 H 9.859 14.731 71.896 H 0.0 **** 0.0
28810 H 9.134 16.054 72.84 H 0.0 **** 0.0
28811 C 81.574 26.517 68.093 C 0.0 **** 0.0
28812 H 81.652 26.648 69.172 H 0.0 **** 0.0
28813 H 81.706 25.464 67.844 H 0.0 **** 0.0
28814 H 82.346 27.107 67.599 H 0.0 **** 0.0
28815 H 80.592 26.851 67.757 H 0.0 **** 0.0
28816 C 87.344 60.09 38.19 C 0.0 **** 0.0
28817 H 88.104 60.023 38.968 H 0.0 **** 0.0
28818 H 86.633 59.272 38.306 H 0.0 **** 0.0
28819 H 87.819 60.023 37.211 H 0.0 **** 0.0
28820 H 86.82 61.042 38.275 H 0.0 **** 0.0
28821 C 3.941 89.635 7.888 C 0.0 **** 0.0
28822 H 3.956 89.929 8.937 H 0.0 **** 0.0
28823 H 3.987 90.525 7.261 H 0.0 **** 0.0
28824 H 3.021 89.089 7.677 H 0.0 **** 0.0
28825 H 4.799 88.996 7.677 H 0.0 **** 0.0
28826 C 78.772 65.099 16.116 C 0.0 **** 0.0
28827 H 79.268 65.793 15.436 H 0.0 **** 0.0
28828 H 79.512 64.428 16.552 H 0.0 **** 0.0
28829 H 78.033 64.517 15.565 H 0.0 **** 0.0
28830 H 78.277 65.659 16.909 H 0.0 **** 0.0
28831 C 39.478 36.526 95.045 C 0.0 **** 0.0
28832 H 39.665 35.473 94.834 H 0.0 **** 0.0
28833 H 38.407 36.686 95.174 H 0.0 **** 0.0
28834 H 39.839 37.133 94.214 H 0.0 **** 0.0
28835 H 40.001 36.812 95.957 H 0.0 **** 0.0
28836 C 67.967 31.533 63.729 C 0.0 **** 0.0
28837 H 67.369 31.254 62.862 H 0.0 **** 0.0
28838 H 68.622 30.705 64.001 H 0.0 **** 0.0
28839 H 67.308 31.765 64.566 H 0.0 **** 0.0
28840 H 68.57 32.409 63.488 H 0.0 **** 0.0
28841 C 51.882 88.808 42.38 C 0.0 **** 0.0
28842 H 51.952 88.943 43.459 H 0.0 **** 0.0
28843 H 51.794 89.782 41.897 H 0.0 **** 0.0
28844 H 51.004 88.206 42.146 H 0.0 **** 0.0
28845 H 52.776 88.302 42.018 H 0.0 **** 0.0
28846 C 90.718 95.399 14.36 C 0.0 **** 0.0
28847 H 91.206 96.08 13.662 H 0.0 **** 0.0
28848 H 90.76 94.384 13.966 H 0.0 **** 0.0
28849 H 89.677 95.697 14.489 H 0.0 **** 0.0
28850 H 91.229 95.438 15.322 H 0.0 **** 0.0
28851 C 64.846 16.605 47.189 C 0.0 **** 0.0
28852 H 64.355 16.718 46.223 H 0.0 **** 0.0
28853 H 64.594 15.633 47.613 H 0.0 **** 0.0
28854 H 64.51 17.394 47.862 H 0.0 **** 0.0
28855 H 65.926 16.676 47.058 H 0.0 **** 0.0
28856 C 24.868 55.921 24.681 C 0.0 **** 0.0
28857 H 24.418 55.141 25.296 H 0.0 **** 0.0
28858 H 24.143 56.718 24.517 H 0.0 **** 0.0
28859 H 25.169 55.499 23.722 H 0.0 **** 0.0
28860 H 25.743 56.325 25.191 H 0.0 **** 0.0
28861 C 61.333 23.383 42.182 C 0.0 **** 0.0
28862 H 60.342 23.069 42.511 H 0.0 **** 0.0
28863 H 61.959 22.504 42.025 H 0.0 **** 0.0
28864 H 61.784 24.019 42.943 H 0.0 **** 0.0
28865 H 61.245 23.939 41.248 H 0.0 **** 0.0
28866 C 54.711 89.565 24.924 C 0.0 **** 0.0
28867 H 55.571 88.954 24.649 H 0.0 **** 0.0
28868 H 54.13 89.051 25.69 H 0.0 **** 0.0
28869 H 54.088 89.732 24.045 H 0.0 **** 0.0
28870 H 55.056 90.524 25.312 H 0.0 **** 0.0
28871 C 29.132 32.276 5.539 C 0.0 **** 0.0
28872 H 28.629 33.201 5.254 H 0.0 **** 0.0
28873 H 30.192 32.473 5.698 H 0.0 **** 0.0
28874 H 29.014 31.539 4.744 H 0.0 **** 0.0
28875 H 28.69 31.892 6.458 H 0.0 **** 0.0
28876 C 3.225 72.516 17.924 C 0.0 **** 0.0
28877 H 3.202 72.494 16.835 H 0.0 **** 0.0
28878 H 3.073 73.538 18.27 H 0.0 **** 0.0
28879 H 4.192 72.154 18.274 H 0.0 **** 0.0
28880 H 2.435 71.877 18.317 H 0.0 **** 0.0
28881 C 24.67 31.396 83.368 C 0.0 **** 0.0
28882 H 25.498 30.755 83.668 H 0.0 **** 0.0
28883 H 24.637 32.274 84.014 H 0.0 **** 0.0
28884 H 23.733 30.845 83.456 H 0.0 **** 0.0
28885 H 24.81 31.71 82.334 H 0.0 **** 0.0
28886 C 85.76 7.736 81.171 C 0.0 **** 0.0
28887 H 86.377 7.897 82.056 H 0.0 **** 0.0
28888 H 85.817 8.612 80.525 H 0.0 **** 0.0
28889 H 84.726 7.574 81.474 H 0.0 **** 0.0
28890 H 86.122 6.861 80.631 H 0.0 **** 0.0
28891 C 28.159 92.958 75.83 C 0.0 **** 0.0
28892 H 28.992 92.498 76.362 H 0.0 **** 0.0
28893 H 28.53 93.776 75.212 H 0.0 **** 0.0
28894 H 27.438 93.345 76.55 H 0.0 **** 0.0
28895 H 27.676 92.214 75.197 H 0.0 **** 0.0
28896 C 45.221 92.05 76.519 C 0.0 **** 0.0
28897 H 45.47 92.985 76.017 H 0.0 **** 0.0
28898 H 46.121 91.443 76.623 H 0.0 **** 0.0
28899 H 44.482 91.508 75.93 H 0.0 **** 0.0
28900 H 44.812 92.267 77.506 H 0.0 **** 0.0
28901 C 96.147 47.936 89.238 C 0.0 **** 0.0
28902 H 97.18 47.649 89.037 H 0.0 **** 0.0
28903 H 95.606 48.025 88.296 H 0.0 **** 0.0
28904 H 96.131 48.893 89.759 H 0.0 **** 0.0
28905 H 95.674 47.175 89.858 H 0.0 **** 0.0
28906 C 92.545 31.407 70.391 C 0.0 **** 0.0
28907 H 93.234 32.119 69.937 H 0.0 **** 0.0
28908 H 93.11 30.664 70.955 H 0.0 **** 0.0
28909 H 91.969 30.91 69.611 H 0.0 **** 0.0
28910 H 91.867 31.935 71.062 H 0.0 **** 0.0
28911 C 73.931 38.835 74.685 C 0.0 **** 0.0
28912 H 73.918 38.78 75.773 H 0.0 **** 0.0
28913 H 72.917 38.997 74.317 H 0.0 **** 0.0
28914 H 74.32 37.902 74.278 H 0.0 **** 0.0
28915 H 74.568 39.662 74.371 H 0.0 **** 0.0
28916 C 54.333 76.771 78.022 C 0.0 **** 0.0
28917 H 53.698 77.085 77.193 H 0.0 **** 0.0
28918 H 54.482 75.692 77.976 H 0.0 **** 0.0
28919 H 53.854 77.032 78.966 H 0.0 **** 0.0
28920 H 55.297 77.275 77.952 H 0.0 **** 0.0
28921 C 80.786 48.288 60.326 C 0.0 **** 0.0
28922 H 80.582 48.048 59.283 H 0.0 **** 0.0
28923 H 79.933 48.819 60.75 H 0.0 **** 0.0
28924 H 81.673 48.918 60.386 H 0.0 **** 0.0
28925 H 80.955 47.367 60.884 H 0.0 **** 0.0
28926 C 48.719 21.226 47.469 C 0.0 **** 0.0
28927 H 49.731 21.03 47.113 H 0.0 **** 0.0
28928 H 48.269 22.017 46.868 H 0.0 **** 0.0
28929 H 48.757 21.539 48.513 H 0.0 **** 0.0
28930 H 48.122 20.319 47.384 H 0.0 **** 0.0
28931 C 53.292 20.457 48.698 C 0.0 **** 0.0
28932 H 53.026 20.748 47.682 H 0.0 **** 0.0
28933 H 53.826 21.275 49.182 H 0.0 **** 0.0
28934 H 53.93 19.574 48.668 H 0.0 **** 0.0
28935 H 52.386 20.232 49.26 H 0.0 **** 0.0
28936 C 76.156 50.494 41.768 C 0.0 **** 0.0
28937 H 76.361 50.85 40.758 H 0.0 **** 0.0
28938 H 75.198 50.891 42.106 H 0.0 **** 0.0
28939 H 76.946 50.83 42.439 H 0.0 **** 0.0
28940 H 76.118 49.404 41.768 H 0.0 **** 0.0
28941 C 9.077 89.3 18.297 C 0.0 **** 0.0
28942 H 8.321 89.164 19.069 H 0.0 **** 0.0
28943 H 9.425 88.326 17.953 H 0.0 **** 0.0
28944 H 9.916 89.863 18.706 H 0.0 **** 0.0
28945 H 8.646 89.849 17.459 H 0.0 **** 0.0
28946 C 67.159 46.664 96.413 C 0.0 **** 0.0
28947 H 67.761 46.215 95.623 H 0.0 **** 0.0
28948 H 67.636 47.584 96.753 H 0.0 **** 0.0
28949 H 67.077 45.968 97.247 H 0.0 **** 0.0
28950 H 66.165 46.89 96.029 H 0.0 **** 0.0
28951 C 57.676 97.822 59.014 C 0.0 **** 0.0
28952 H 57.618 97.757 57.927 H 0.0 **** 0.0
28953 H 57.872 98.854 59.306 H 0.0 **** 0.0
28954 H 58.482 97.183 59.374 H 0.0 **** 0.0
28955 H 56.731 97.495 59.447 H 0.0 **** 0.0
28956 C 39.944 70.375 64.744 C 0.0 **** 0.0
28957 H 39.207 69.753 64.237 H 0.0 **** 0.0
28958 H 39.57 71.397 64.814 H 0.0 **** 0.0
28959 H 40.876 70.367 64.178 H 0.0 **** 0.0
28960 H 40.124 69.983 65.745 H 0.0 **** 0.0
28961 C 61.615 35.469 89.685 C 0.0 **** 0.0
28962 H 60.625 35.674 89.277 H 0.0 **** 0.0
28963 H 62.295 36.276 89.412 H 0.0 **** 0.0
28964 H 61.987 34.528 89.28 H 0.0 **** 0.0
28965 H 61.553 35.397 90.771 H 0.0 **** 0.0
28966 C 90.075 50.659 15.846 C 0.0 **** 0.0
28967 H 89.838 51.274 16.714 H 0.0 **** 0.0
28968 H 90.462 49.695 16.178 H 0.0 **** 0.0
28969 H 90.827 51.163 15.238 H 0.0 **** 0.0
28970 H 89.173 50.505 15.253 H 0.0 **** 0.0
28971 C 71.324 30.102 75.228 C 0.0 **** 0.0
28972 H 72.289 30.073 74.721 H 0.0 **** 0.0
28973 H 71.481 30.209 76.301 H 0.0 **** 0.0
28974 H 70.782 29.178 75.03 H 0.0 **** 0.0
28975 H 70.745 30.949 74.858 H 0.0 **** 0.0
28976 C 43.654 40.649 29.295 C 0.0 **** 0.0
28977 H 43.879 41.715 29.295 H 0.0 **** 0.0
28978 H 43.379 40.336 30.302 H 0.0 **** 0.0
28979 H 44.532 40.092 28.968 H 0.0 **** 0.0
28980 H 42.826 40.453 28.614 H 0.0 **** 0.0
28981 C 49.909 74.893 71.72 C 0.0 **** 0.0
28982 H 49.349 75.826 71.779 H 0.0 **** 0.0
28983 H 49.231 74.052 71.865 H 0.0 **** 0.0
28984 H 50.676 74.88 72.494 H 0.0 **** 0.0
28985 H 50.381 74.814 70.74 H 0.0 **** 0.0
28986 C 63.745 21.19 52.601 C 0.0 **** 0.0
28987 H 63.785 20.405 53.355 H 0.0 **** 0.0
28988 H 63.991 20.77 51.626 H 0.0 **** 0.0
28989 H 64.462 21.972 52.852 H 0.0 **** 0.0
28990 H 62.741 21.614 52.571 H 0.0 **** 0.0
28991 C 14.129 10.157 38.494 C 0.0 **** 0.0
28992 H 14.984 9.575 38.15 H 0.0 **** 0.0
28993 H 14.098 10.149 39.584 H 0.0 **** 0.0
28994 H 13.211 9.721 38.101 H 0.0 **** 0.0
28995 H 14.223 11.184 38.141 H 0.0 **** 0.0
28996 C 49.09 53.338 2.579 C 0.0 **** 0.0
28997 H 48.541 53.5 3.506 H 0.0 **** 0.0
28998 H 50.082 53.782 2.663 H 0.0 **** 0.0
28999 H 48.552 53.802 1.753 H 0.0 **** 0.0
29000 H 49.185 52.268 2.395 H 0.0 **** 0.0
29001 C 23.881 47.26 78.133 C 0.0 **** 0.0
29002 H 24.734 46.694 78.507 H 0.0 **** 0.0
29003 H 23.027 46.593 78.013 H 0.0 **** 0.0
29004 H 24.134 47.704 77.17 H 0.0 **** 0.0
29005 H 23.63 48.049 78.841 H 0.0 **** 0.0
29006 C 70.278 64.701 61.228 C 0.0 **** 0.0
29007 H 70.436 64.471 62.281 H 0.0 **** 0.0
29008 H 69.288 64.358 60.926 H 0.0 **** 0.0
29009 H 71.036 64.196 60.628 H 0.0 **** 0.0
29010 H 70.353 65.777 61.075 H 0.0 **** 0.0
29011 C 16.878 66.183 30.313 C 0.0 **** 0.0
29012 H 16.357 67.054 30.708 H 0.0 **** 0.0
29013 H 17.542 65.779 31.078 H 0.0 **** 0.0
29014 H 17.463 66.474 29.441 H 0.0 **** 0.0
29015 H 16.15 65.424 30.026 H 0.0 **** 0.0
29016 C 78.169 49.867 74.679 C 0.0 **** 0.0
29017 H 77.697 49.606 73.732 H 0.0 **** 0.0
29018 H 78.598 48.972 75.131 H 0.0 **** 0.0
29019 H 77.424 50.293 75.351 H 0.0 **** 0.0
29020 H 78.958 50.599 74.502 H 0.0 **** 0.0
29021 C 57.872 62.323 77.493 C 0.0 **** 0.0
29022 H 57.608 61.359 77.058 H 0.0 **** 0.0
29023 H 58.482 62.166 78.383 H 0.0 **** 0.0
29024 H 56.963 62.859 77.766 H 0.0 **** 0.0
29025 H 58.434 62.908 76.765 H 0.0 **** 0.0
29026 C 1.324 46.596 37.009 C 0.0 **** 0.0
29027 H 1.408 47.243 36.136 H 0.0 **** 0.0
29028 H 1.345 45.554 36.692 H 0.0 **** 0.0
29029 H 0.385 46.801 37.523 H 0.0 **** 0.0
29030 H 2.158 46.788 37.685 H 0.0 **** 0.0
29031 C 35.131 28.514 3.099 C 0.0 **** 0.0
29032 H 34.797 28.613 4.131 H 0.0 **** 0.0
29033 H 36.09 27.995 3.075 H 0.0 **** 0.0
29034 H 35.242 29.504 2.657 H 0.0 **** 0.0
29035 H 34.395 27.944 2.532 H 0.0 **** 0.0
29036 C 13.402 7.135 69.169 C 0.0 **** 0.0
29037 H 13.514 8.142 69.57 H 0.0 **** 0.0
29038 H 13.524 7.16 68.086 H 0.0 **** 0.0
29039 H 12.41 6.755 69.414 H 0.0 **** 0.0
29040 H 14.159 6.484 69.605 H 0.0 **** 0.0
29041 C 53.76 84.704 32.797 C 0.0 **** 0.0
29042 H 53.801 85.66 33.32 H 0.0 **** 0.0
29043 H 52.991 84.076 33.248 H 0.0 **** 0.0
29044 H 54.727 84.207 32.872 H 0.0 **** 0.0
29045 H 53.52 84.875 31.747 H 0.0 **** 0.0
29046 C 43.45 72.655 96.147 C 0.0 **** 0.0
29047 H 42.38 72.684 95.939 H 0.0 **** 0.0
29048 H 43.906 73.595 95.833 H 0.0 **** 0.0
29049 H 43.903 71.83 95.598 H 0.0 **** 0.0
29050 H 43.609 72.512 97.215 H 0.0 **** 0.0
29051 C 55.858 86.39 26.281 C 0.0 **** 0.0
29052 H 55.64 86.677 27.31 H 0.0 **** 0.0
29053 H 55.836 85.304 26.195 H 0.0 **** 0.0
29054 H 56.846 86.757 26.004 H 0.0 **** 0.0
29055 H 55.11 86.823 25.618 H 0.0 **** 0.0
29056 C 61.127 17.816 34.504 C 0.0 **** 0.0
29057 H 61.019 17.809 33.419 H 0.0 **** 0.0
29058 H 61.726 18.676 34.803 H 0.0 **** 0.0
29059 H 61.622 16.899 34.826 H 0.0 **** 0.0
29060 H 60.143 17.879 34.967 H 0.0 **** 0.0
29061 C 22.108 11.331 87.582 C 0.0 **** 0.0
29062 H 21.505 10.822 86.83 H 0.0 **** 0.0
29063 H 23.018 11.713 87.119 H 0.0 **** 0.0
29064 H 22.37 10.63 88.374 H 0.0 **** 0.0
29065 H 21.539 12.16 88.004 H 0.0 **** 0.0
29066 C 53.762 8.725 65.615 C 0.0 **** 0.0
29067 H 54.206 9.36 66.382 H 0.0 **** 0.0
29068 H 53.114 7.985 66.087 H 0.0 **** 0.0
29069 H 54.552 8.217 65.062 H 0.0 **** 0.0
29070 H 53.176 9.338 64.931 H 0.0 **** 0.0
29071 C 61.727 55.405 37.589 C 0.0 **** 0.0
29072 H 61.815 56.093 38.431 H 0.0 **** 0.0
29073 H 60.918 55.734 36.936 H 0.0 **** 0.0
29074 H 61.511 54.403 37.96 H 0.0 **** 0.0
29075 H 62.663 55.393 37.031 H 0.0 **** 0.0
29076 C 28.349 37.02 40.236 C 0.0 **** 0.0
29077 H 28.252 36.942 41.319 H 0.0 **** 0.0
29078 H 29.211 37.641 39.992 H 0.0 **** 0.0
29079 H 27.447 37.472 39.822 H 0.0 **** 0.0
29080 H 28.484 36.026 39.811 H 0.0 **** 0.0
29081 C 33.926 14.232 14.524 C 0.0 **** 0.0
29082 H 33.893 14.265 15.613 H 0.0 **** 0.0
29083 H 32.909 14.217 14.131 H 0.0 **** 0.0
29084 H 34.453 13.333 14.204 H 0.0 **** 0.0
29085 H 34.448 15.112 14.149 H 0.0 **** 0.0
29086 C 15.797 42.267 39.405 C 0.0 **** 0.0
29087 H 16.365 42.085 40.317 H 0.0 **** 0.0
29088 H 15.949 43.297 39.082 H 0.0 **** 0.0
29089 H 14.737 42.099 39.598 H 0.0 **** 0.0
29090 H 16.137 41.587 38.624 H 0.0 **** 0.0
29091 C 14.454 38.68 39.897 C 0.0 **** 0.0
29092 H 13.667 38.722 40.65 H 0.0 **** 0.0
29093 H 14.638 39.682 39.508 H 0.0 **** 0.0
29094 H 14.144 38.025 39.083 H 0.0 **** 0.0
29095 H 15.367 38.292 40.349 H 0.0 **** 0.0
29096 C 76.514 35.095 94.38 C 0.0 **** 0.0
29097 H 76.246 35.397 95.392 H 0.0 **** 0.0
29098 H 77.481 34.592 94.395 H 0.0 **** 0.0
29099 H 76.572 35.977 93.742 H 0.0 **** 0.0
29100 H 75.756 34.414 93.991 H 0.0 **** 0.0
29101 C 42.113 10.719 34.308 C 0.0 **** 0.0
29102 H 43.086 10.884 33.845 H 0.0 **** 0.0
29103 H 42.252 10.299 35.304 H 0.0 **** 0.0
29104 H 41.534 10.026 33.698 H 0.0 **** 0.0
29105 H 41.582 11.668 34.383 H 0.0 **** 0.0
29106 C 84.03 71.193 49.354 C 0.0 **** 0.0
29107 H 83.987 71.685 50.326 H 0.0 **** 0.0
29108 H 83.064 70.736 49.135 H 0.0 **** 0.0
29109 H 84.801 70.423 49.371 H 0.0 **** 0.0
29110 H 84.268 71.928 48.585 H 0.0 **** 0.0
29111 C 54.679 86.785 66.793 C 0.0 **** 0.0
29112 H 54.723 87.576 67.542 H 0.0 **** 0.0
29113 H 55.392 86.001 67.051 H 0.0 **** 0.0
29114 H 54.927 87.196 65.815 H 0.0 **** 0.0
29115 H 53.672 86.366 66.767 H 0.0 **** 0.0
29116 C 16.455 90.155 28.96 C 0.0 **** 0.0
29117 H 16.709 89.42 28.197 H 0.0 **** 0.0
29118 H 16.323 89.653 29.918 H 0.0 **** 0.0
29119 H 15.529 90.661 28.684 H 0.0 **** 0.0
29120 H 17.258 90.887 29.041 H 0.0 **** 0.0
29121 C 27.324 52.746 90.641 C 0.0 **** 0.0
29122 H 27.381 52.714 91.729 H 0.0 **** 0.0
29123 H 26.285 52.64 90.328 H 0.0 **** 0.0
29124 H 27.915 51.931 90.222 H 0.0 **** 0.0
29125 H 27.716 53.698 90.285 H 0.0 **** 0.0
29126 C 58.561 67.619 92.236 C 0.0 **** 0.0
29127 H 58.375 68.658 92.507 H 0.0 **** 0.0
29128 H 58.301 66.973 93.075 H 0.0 **** 0.0
29129 H 59.616 67.491 91.992 H 0.0 **** 0.0
29130 H 57.954 67.355 91.371 H 0.0 **** 0.0
29131 C 13.641 34.534 97.726 C 0.0 **** 0.0
29132 H 13.649 33.542 97.275 H 0.0 **** 0.0
29133 H 14.07 34.481 98.727 H 0.0 **** 0.0
29134 H 12.615 34.896 97.789 H 0.0 **** 0.0
29135 H 14.23 35.217 97.113 H 0.0 **** 0.0
29136 C 71.289 50.337 7.784 C 0.0 **** 0.0
29137 H 71.128 49.682 8.64 H 0.0 **** 0.0
29138 H 70.509 50.163 7.042 H 0.0 **** 0.0
29139 H 72.263 50.126 7.343 H 0.0 **** 0.0
29140 H 71.255 51.376 8.11 H 0.0 **** 0.0
29141 C 53.054 75.364 36.456 C 0.0 **** 0.0
29142 H 53.533 74.581 35.868 H 0.0 **** 0.0
29143 H 52.189 75.747 35.915 H 0.0 **** 0.0
29144 H 53.763 76.174 36.627 H 0.0 **** 0.0
29145 H 52.733 74.953 37.413 H 0.0 **** 0.0
29146 C 76.605 8.119 19.723 C 0.0 **** 0.0
29147 H 77.384 7.357 19.73 H 0.0 **** 0.0
29148 H 75.906 7.916 18.911 H 0.0 **** 0.0
29149 H 77.058 9.1 19.575 H 0.0 **** 0.0
29150 H 76.073 8.104 20.674 H 0.0 **** 0.0
29151 C 96.773 42.012 41.116 C 0.0 **** 0.0
29152 H 97.389 41.947 40.219 H 0.0 **** 0.0
29153 H 96.296 42.992 41.158 H 0.0 **** 0.0
29154 H 97.398 41.874 41.998 H 0.0 **** 0.0
29155 H 96.008 41.236 41.087 H 0.0 **** 0.0
29156 C 85.085 89.574 70.908 C 0.0 **** 0.0
29157 H 84.91 89.263 69.879 H 0.0 **** 0.0
29158 H 85.459 88.727 71.485 H 0.0 **** 0.0
29159 H 84.151 89.927 71.345 H 0.0 **** 0.0
29160 H 85.821 90.378 70.925 H 0.0 **** 0.0
29161 C 13.801 31.927 88.079 C 0.0 **** 0.0
29162 H 14.53 31.863 87.272 H 0.0 **** 0.0
29163 H 13.253 30.986 88.148 H 0.0 **** 0.0
29164 H 13.104 32.739 87.876 H 0.0 **** 0.0
29165 H 14.317 32.117 89.02 H 0.0 **** 0.0
29166 C 80.377 89.474 23.443 C 0.0 **** 0.0
29167 H 79.967 88.488 23.66 H 0.0 **** 0.0
29168 H 79.595 90.225 23.56 H 0.0 **** 0.0
29169 H 80.752 89.496 22.42 H 0.0 **** 0.0
29170 H 81.193 89.688 24.134 H 0.0 **** 0.0
29171 C 27.751 57.895 47.16 C 0.0 **** 0.0
29172 H 27.603 57.79 46.085 H 0.0 **** 0.0
29173 H 27.208 57.106 47.68 H 0.0 **** 0.0
29174 H 27.379 58.867 47.484 H 0.0 **** 0.0
29175 H 28.814 57.818 47.389 H 0.0 **** 0.0
29176 C 91.137 23.21 50.876 C 0.0 **** 0.0
29177 H 90.839 22.425 51.571 H 0.0 **** 0.0
29178 H 91.842 22.804 50.15 H 0.0 **** 0.0
29179 H 91.61 24.023 51.427 H 0.0 **** 0.0
29180 H 90.256 23.587 50.356 H 0.0 **** 0.0
29181 C 62.51 58.129 56.274 C 0.0 **** 0.0
29182 H 63.161 58.815 55.732 H 0.0 **** 0.0
29183 H 62.138 57.366 55.591 H 0.0 **** 0.0
29184 H 61.67 58.682 56.695 H 0.0 **** 0.0
29185 H 63.073 57.654 57.078 H 0.0 **** 0.0
29186 C 18.673 20.621 70.42 C 0.0 **** 0.0
29187 H 18.536 21.182 69.496 H 0.0 **** 0.0
29188 H 17.726 20.571 70.959 H 0.0 **** 0.0
29189 H 19.418 21.118 71.04 H 0.0 **** 0.0
29190 H 19.011 19.612 70.185 H 0.0 **** 0.0
29191 C 14.259 51.937 1.417 C 0.0 **** 0.0
29192 H 15.06 52.665 1.551 H 0.0 **** 0.0
29193 H 14.262 51.236 2.252 H 0.0 **** 0.0
29194 H 14.415 51.394 0.485 H 0.0 **** 0.0
29195 H 13.301 52.455 1.38 H 0.0 **** 0.0
29196 C 38.934 84.998 93.313 C 0.0 **** 0.0
29197 H 38.848 83.956 93.621 H 0.0 **** 0.0
29198 H 38.934 85.639 94.195 H 0.0 **** 0.0
29199 H 38.089 85.258 92.675 H 0.0 **** 0.0
29200 H 39.863 85.138 92.761 H 0.0 **** 0.0
29201 C 98.533 48.747 11.821 C 0.0 **** 0.0
29202 H 97.467 48.665 12.034 H 0.0 **** 0.0
29203 H 98.993 47.761 11.887 H 0.0 **** 0.0
29204 H 98.998 49.415 12.546 H 0.0 **** 0.0
29205 H 98.672 49.147 10.817 H 0.0 **** 0.0
29206 C 88.168 39.63 6.422 C 0.0 **** 0.0
29207 H 88.008 38.605 6.754 H 0.0 **** 0.0
29208 H 89.217 39.896 6.557 H 0.0 **** 0.0
29209 H 87.544 40.304 7.009 H 0.0 **** 0.0
29210 H 87.904 39.716 5.368 H 0.0 **** 0.0
29211 C 73.452 49.963 2.228 C 0.0 **** 0.0
29212 H 74.075 49.109 1.959 H 0.0 **** 0.0
29213 H 73.983 50.886 1.998 H 0.0 **** 0.0
29214 H 73.228 49.927 3.294 H 0.0 **** 0.0
29215 H 72.522 49.927 1.66 H 0.0 **** 0.0
29216 C 32.556 13.311 48.999 C 0.0 **** 0.0
29217 H 32.713 13.304 47.921 H 0.0 **** 0.0
29218 H 32.517 12.286 49.367 H 0.0 **** 0.0
29219 H 31.616 13.815 49.226 H 0.0 **** 0.0
29220 H 33.378 13.84 49.482 H 0.0 **** 0.0
29221 C 49.699 11.596 61.304 C 0.0 **** 0.0
29222 H 50.684 11.378 61.718 H 0.0 **** 0.0
29223 H 49.605 12.669 61.138 H 0.0 **** 0.0
29224 H 48.931 11.267 62.003 H 0.0 **** 0.0
29225 H 49.579 11.069 60.357 H 0.0 **** 0.0
29226 C 1.283 65.066 64.991 C 0.0 **** 0.0
29227 H 0.77 64.852 65.929 H 0.0 **** 0.0
29228 H 1.61 66.106 64.986 H 0.0 **** 0.0
29229 H 0.602 64.894 64.157 H 0.0 **** 0.0
29230 H 2.149 64.412 64.894 H 0.0 **** 0.0
29231 C 95.572 66.35 53.789 C 0.0 **** 0.0
29232 H 95.419 66.33 52.71 H 0.0 **** 0.0
29233 H 94.615 66.213 54.293 H 0.0 **** 0.0
29234 H 96.0 67.31 54.077 H 0.0 **** 0.0
29235 H 96.252 65.548 54.075 H 0.0 **** 0.0
29236 C 71.201 9.678 40.19 C 0.0 **** 0.0
29237 H 71.027 9.457 39.137 H 0.0 **** 0.0
29238 H 71.728 8.844 40.653 H 0.0 **** 0.0
29239 H 70.245 9.828 40.691 H 0.0 **** 0.0
29240 H 71.803 10.582 40.277 H 0.0 **** 0.0
29241 C 96.306 7.137 89.692 C 0.0 **** 0.0
29242 H 96.292 7.219 88.605 H 0.0 **** 0.0
29243 H 95.819 8.009 90.129 H 0.0 **** 0.0
29244 H 97.338 7.085 90.039 H 0.0 **** 0.0
29245 H 95.775 6.234 89.995 H 0.0 **** 0.0
29246 C 63.143 25.28 59.637 C 0.0 **** 0.0
29247 H 63.617 25.87 60.421 H 0.0 **** 0.0
29248 H 62.06 25.372 59.717 H 0.0 **** 0.0
29249 H 63.428 24.234 59.747 H 0.0 **** 0.0
29250 H 63.468 25.644 58.662 H 0.0 **** 0.0
29251 C 31.595 96.926 83.149 C 0.0 **** 0.0
29252 H 31.988 96.36 83.994 H 0.0 **** 0.0
29253 H 31.687 96.333 82.24 H 0.0 **** 0.0
29254 H 32.161 97.852 83.039 H 0.0 **** 0.0
29255 H 30.546 97.161 83.326 H 0.0 **** 0.0
29256 C 66.571 24.852 86.654 C 0.0 **** 0.0
29257 H 66.765 25.258 87.647 H 0.0 **** 0.0
29258 H 66.55 23.763 86.705 H 0.0 **** 0.0
29259 H 67.359 25.169 85.972 H 0.0 **** 0.0
29260 H 65.609 25.217 86.294 H 0.0 **** 0.0
29261 C 49.234 5.08 0.981 C 0.0 **** 0.0
29262 H 48.767 4.704 0.071 H 0.0 **** 0.0
29263 H 49.726 6.03 0.771 H 0.0 **** 0.0
29264 H 49.97 4.359 1.335 H 0.0 **** 0.0
29265 H 48.472 5.226 1.746 H 0.0 **** 0.0
29266 C 35.107 80.024 51.572 C 0.0 **** 0.0
29267 H 35.159 80.442 52.578 H 0.0 **** 0.0
29268 H 36.117 79.887 51.184 H 0.0 **** 0.0
29269 H 34.557 80.705 50.924 H 0.0 **** 0.0
29270 H 34.596 79.061 51.605 H 0.0 **** 0.0
29271 C 93.102 96.641 17.335 C 0.0 **** 0.0
29272 H 93.493 96.26 16.391 H 0.0 **** 0.0
29273 H 92.574 95.844 17.858 H 0.0 **** 0.0
29274 H 92.416 97.464 17.137 H 0.0 **** 0.0
29275 H 93.927 96.996 17.952 H 0.0 **** 0.0
29276 C 73.111 64.879 65.721 C 0.0 **** 0.0
29277 H 73.663 65.229 64.849 H 0.0 **** 0.0
29278 H 72.475 65.682 66.094 H 0.0 **** 0.0
29279 H 73.813 64.58 66.499 H 0.0 **** 0.0
29280 H 72.493 64.025 65.441 H 0.0 **** 0.0
29281 C 20.684 95.527 9.792 C 0.0 **** 0.0
29282 H 20.887 95.393 10.854 H 0.0 **** 0.0
29283 H 21.579 95.281 9.218 H 0.0 **** 0.0
29284 H 20.404 96.563 9.603 H 0.0 **** 0.0
29285 H 19.868 94.87 9.492 H 0.0 **** 0.0
29286 C 4.679 6.556 33.187 C 0.0 **** 0.0
29287 H 3.659 6.826 32.914 H 0.0 **** 0.0
29288 H 5.38 7.201 32.658 H 0.0 **** 0.0
29289 H 4.864 5.517 32.915 H 0.0 **** 0.0
29290 H 4.811 6.678 34.262 H 0.0 **** 0.0
29291 C 91.804 41.881 22.197 C 0.0 **** 0.0
29292 H 90.845 41.404 21.997 H 0.0 **** 0.0
29293 H 91.671 42.962 22.237 H 0.0 **** 0.0
29294 H 92.507 41.63 21.403 H 0.0 **** 0.0
29295 H 92.193 41.527 23.152 H 0.0 **** 0.0
29296 C 72.071 3.277 4.601 C 0.0 **** 0.0
29297 H 72.918 2.743 4.172 H 0.0 **** 0.0
29298 H 72.03 3.091 5.675 H 0.0 **** 0.0
29299 H 71.148 2.929 4.137 H 0.0 **** 0.0
29300 H 72.187 4.346 4.422 H 0.0 **** 0.0
29301 C 70.592 92.153 24.838 C 0.0 **** 0.0
29302 H 70.115 92.147 25.818 H 0.0 **** 0.0
29303 H 70.161 91.365 24.22 H 0.0 **** 0.0
29304 H 71.662 91.981 24.954 H 0.0 **** 0.0
29305 H 70.428 93.12 24.361 H 0.0 **** 0.0
29306 C 9.147 88.927 63.338 C 0.0 **** 0.0
29307 H 8.126 89.093 62.995 H 0.0 **** 0.0
29308 H 9.835 89.518 62.733 H 0.0 **** 0.0
29309 H 9.395 87.87 63.243 H 0.0 **** 0.0
29310 H 9.233 89.227 64.383 H 0.0 **** 0.0
29311 C 60.426 90.989 22.894 C 0.0 **** 0.0
29312 H 60.454 91.059 21.807 H 0.0 **** 0.0
29313 H 61.434 91.109 23.292 H 0.0 **** 0.0
29314 H 60.033 90.015 23.185 H 0.0 **** 0.0
29315 H 59.783 91.774 23.292 H 0.0 **** 0.0
29316 C 35.769 57.558 1.501 C 0.0 **** 0.0
29317 H 36.745 57.163 1.782 H 0.0 **** 0.0
29318 H 35.278 57.972 2.382 H 0.0 **** 0.0
29319 H 35.158 56.755 1.088 H 0.0 **** 0.0
29320 H 35.896 58.34 0.753 H 0.0 **** 0.0
29321 C 95.409 4.519 50.558 C 0.0 **** 0.0
29322 H 95.645 3.952 51.458 H 0.0 **** 0.0
29323 H 96.209 5.233 50.359 H 0.0 **** 0.0
29324 H 94.471 5.054 50.702 H 0.0 **** 0.0
29325 H 95.313 3.836 49.714 H 0.0 **** 0.0
29326 C 67.885 60.017 13.686 C 0.0 **** 0.0
29327 H 67.258 60.156 12.805 H 0.0 **** 0.0
29328 H 68.102 58.956 13.813 H 0.0 **** 0.0
29329 H 67.362 60.39 14.567 H 0.0 **** 0.0
29330 H 68.818 60.566 13.558 H 0.0 **** 0.0
29331 C 29.262 28.25 94.673 C 0.0 **** 0.0
29332 H 30.151 27.786 94.246 H 0.0 **** 0.0
29333 H 29.349 29.335 94.601 H 0.0 **** 0.0
29334 H 29.169 27.961 95.72 H 0.0 **** 0.0
29335 H 28.38 27.919 94.124 H 0.0 **** 0.0
29336 C 77.763 16.851 26.032 C 0.0 **** 0.0
29337 H 77.739 16.832 27.122 H 0.0 **** 0.0
29338 H 77.275 17.758 25.675 H 0.0 **** 0.0
29339 H 77.239 15.979 25.642 H 0.0 **** 0.0
29340 H 78.798 16.836 25.691 H 0.0 **** 0.0
29341 C 54.773 15.13 60.982 C 0.0 **** 0.0
29342 H 55.195 16.134 61.038 H 0.0 **** 0.0
29343 H 54.946 14.611 61.925 H 0.0 **** 0.0
29344 H 55.25 14.581 60.171 H 0.0 **** 0.0
29345 H 53.701 15.197 60.795 H 0.0 **** 0.0
29346 C 31.829 52.859 17.88 C 0.0 **** 0.0
29347 H 31.777 52.411 16.888 H 0.0 **** 0.0
29348 H 32.855 53.163 18.088 H 0.0 **** 0.0
29349 H 31.508 52.131 18.625 H 0.0 **** 0.0
29350 H 31.176 53.731 17.919 H 0.0 **** 0.0
29351 C 17.362 18.644 3.443 C 0.0 **** 0.0
29352 H 18.123 19.239 2.939 H 0.0 **** 0.0
29353 H 16.492 19.267 3.652 H 0.0 **** 0.0
29354 H 17.765 18.256 4.379 H 0.0 **** 0.0
29355 H 17.068 17.812 2.802 H 0.0 **** 0.0
29356 C 57.981 18.386 8.958 C 0.0 **** 0.0
29357 H 57.881 18.77 9.973 H 0.0 **** 0.0
29358 H 57.809 17.309 8.959 H 0.0 **** 0.0
29359 H 58.985 18.593 8.589 H 0.0 **** 0.0
29360 H 57.249 18.871 8.313 H 0.0 **** 0.0
29361 C 70.077 9.456 54.105 C 0.0 **** 0.0
29362 H 70.232 8.661 53.376 H 0.0 **** 0.0
29363 H 70.871 10.197 54.008 H 0.0 **** 0.0
29364 H 70.091 9.036 55.11 H 0.0 **** 0.0
29365 H 69.112 9.931 53.924 H 0.0 **** 0.0
29366 C 42.599 80.301 6.786 C 0.0 **** 0.0
29367 H 43.478 79.659 6.837 H 0.0 **** 0.0
29368 H 41.914 79.919 6.027 H 0.0 **** 0.0
29369 H 42.903 81.314 6.524 H 0.0 **** 0.0
29370 H 42.1 80.31 7.755 H 0.0 **** 0.0
29371 C 37.819 55.712 48.045 C 0.0 **** 0.0
29372 H 37.812 55.496 49.113 H 0.0 **** 0.0
29373 H 37.982 54.789 47.489 H 0.0 **** 0.0
29374 H 38.62 56.417 47.823 H 0.0 **** 0.0
29375 H 36.862 56.147 47.756 H 0.0 **** 0.0
29376 C 20.179 35.701 26.784 C 0.0 **** 0.0
29377 H 20.6 35.448 25.811 H 0.0 **** 0.0
29378 H 19.436 34.954 27.063 H 0.0 **** 0.0
29379 H 19.706 36.682 26.73 H 0.0 **** 0.0
29380 H 20.973 35.721 27.529 H 0.0 **** 0.0
29381 C 26.471 40.145 4.773 C 0.0 **** 0.0
29382 H 26.34 39.687 5.753 H 0.0 **** 0.0
29383 H 26.959 39.435 4.104 H 0.0 **** 0.0
29384 H 27.089 41.037 4.869 H 0.0 **** 0.0
29385 H 25.498 40.418 4.367 H 0.0 **** 0.0
29386 C 81.603 19.254 37.914 C 0.0 **** 0.0
29387 H 81.861 19.42 38.96 H 0.0 **** 0.0
29388 H 82.397 18.683 37.431 H 0.0 **** 0.0
29389 H 81.489 20.214 37.411 H 0.0 **** 0.0
29390 H 80.667 18.699 37.854 H 0.0 **** 0.0
29391 C 91.109 27.572 71.957 C 0.0 **** 0.0
29392 H 91.104 27.593 73.047 H 0.0 **** 0.0
29393 H 91.912 26.921 71.61 H 0.0 **** 0.0
29394 H 91.266 28.58 71.575 H 0.0 **** 0.0
29395 H 90.152 27.192 71.597 H 0.0 **** 0.0
29396 C 72.12 69.905 26.565 C 0.0 **** 0.0
29397 H 71.362 70.57 26.979 H 0.0 **** 0.0
29398 H 72.161 68.989 27.155 H 0.0 **** 0.0
29399 H 73.091 70.399 26.593 H 0.0 **** 0.0
29400 H 71.865 69.662 25.534 H 0.0 **** 0.0
29401 C 89.637 84.001 18.498 C 0.0 **** 0.0
29402 H 90.676 84.211 18.244 H 0.0 **** 0.0
29403 H 89.014 84.131 17.613 H 0.0 **** 0.0
29404 H 89.308 84.687 19.278 H 0.0 **** 0.0
29405 H 89.551 82.975 18.856 H 0.0 **** 0.0
29406 C 52.969 39.315 94.049 C 0.0 **** 0.0
29407 H 52.666 39.966 94.868 H 0.0 **** 0.0
29408 H 52.616 39.73 93.105 H 0.0 **** 0.0
29409 H 52.538 38.324 94.194 H 0.0 **** 0.0
29410 H 54.056 39.239 94.028 H 0.0 **** 0.0
29411 C 74.27 46.579 7.688 C 0.0 **** 0.0
29412 H 74.143 46.196 8.7 H 0.0 **** 0.0
29413 H 73.81 45.891 6.979 H 0.0 **** 0.0
29414 H 75.333 46.673 7.466 H 0.0 **** 0.0
29415 H 73.794 47.556 7.607 H 0.0 **** 0.0
29416 C 72.489 95.669 82.27 C 0.0 **** 0.0
29417 H 72.605 95.431 81.212 H 0.0 **** 0.0
29418 H 73.412 96.113 82.645 H 0.0 **** 0.0
29419 H 72.272 94.756 82.825 H 0.0 **** 0.0
29420 H 71.668 96.375 82.395 H 0.0 **** 0.0
29421 C 84.083 51.749 18.396 C 0.0 **** 0.0
29422 H 83.359 52.554 18.52 H 0.0 **** 0.0
29423 H 83.697 51.019 17.684 H 0.0 **** 0.0
29424 H 84.254 51.264 19.358 H 0.0 **** 0.0
29425 H 85.022 52.158 18.024 H 0.0 **** 0.0
29426 C 35.018 81.644 97.131 C 0.0 **** 0.0
29427 H 34.894 81.642 98.214 H 0.0 **** 0.0
29428 H 35.69 80.837 96.841 H 0.0 **** 0.0
29429 H 35.438 82.599 96.815 H 0.0 **** 0.0
29430 H 34.048 81.499 96.654 H 0.0 **** 0.0
29431 C 50.937 61.269 93.86 C 0.0 **** 0.0
29432 H 50.949 61.246 94.949 H 0.0 **** 0.0
29433 H 49.976 60.9 93.499 H 0.0 **** 0.0
29434 H 51.737 60.637 93.474 H 0.0 **** 0.0
29435 H 51.085 62.293 93.516 H 0.0 **** 0.0
29436 C 3.586 85.195 87.817 C 0.0 **** 0.0
29437 H 3.6 85.279 88.904 H 0.0 **** 0.0
29438 H 2.756 84.558 87.512 H 0.0 **** 0.0
29439 H 4.524 84.757 87.475 H 0.0 **** 0.0
29440 H 3.466 86.185 87.378 H 0.0 **** 0.0
29441 C 69.701 74.714 6.297 C 0.0 **** 0.0
29442 H 68.67 74.389 6.436 H 0.0 **** 0.0
29443 H 70.064 75.177 7.215 H 0.0 **** 0.0
29444 H 69.747 75.437 5.482 H 0.0 **** 0.0
29445 H 70.324 73.853 6.053 H 0.0 **** 0.0
29446 C 72.486 52.68 61.78 C 0.0 **** 0.0
29447 H 72.941 53.44 62.414 H 0.0 **** 0.0
29448 H 73.269 52.113 61.275 H 0.0 **** 0.0
29449 H 71.849 53.16 61.038 H 0.0 **** 0.0
29450 H 71.887 52.006 62.392 H 0.0 **** 0.0
29451 C 61.066 51.65 60.563 C 0.0 **** 0.0
29452 H 60.626 52.149 59.701 H 0.0 **** 0.0
29453 H 61.8 50.919 60.224 H 0.0 **** 0.0
29454 H 60.284 51.145 61.129 H 0.0 **** 0.0
29455 H 61.556 52.388 61.199 H 0.0 **** 0.0
29456 C 98.018 67.701 90.786 C 0.0 **** 0.0
29457 H 97.988 67.306 89.771 H 0.0 **** 0.0
29458 H 97.825 68.774 90.764 H 0.0 **** 0.0
29459 H 99.002 67.518 91.218 H 0.0 **** 0.0
29460 H 97.258 67.208 91.391 H 0.0 **** 0.0
29461 C 87.727 46.675 32.131 C 0.0 **** 0.0
29462 H 87.962 46.734 33.194 H 0.0 **** 0.0
29463 H 86.68 46.937 31.976 H 0.0 **** 0.0
29464 H 87.906 45.661 31.775 H 0.0 **** 0.0
29465 H 88.361 47.37 31.58 H 0.0 **** 0.0
29466 C 48.041 28.082 91.449 C 0.0 **** 0.0
29467 H 48.882 28.348 92.09 H 0.0 **** 0.0
29468 H 48.412 27.596 90.547 H 0.0 **** 0.0
29469 H 47.492 28.983 91.178 H 0.0 **** 0.0
29470 H 47.38 27.4 91.984 H 0.0 **** 0.0
29471 C 30.786 28.457 1.059 C 0.0 **** 0.0
29472 H 31.45 28.819 1.844 H 0.0 **** 0.0
29473 H 31.101 27.461 0.748 H 0.0 **** 0.0
29474 H 30.829 29.134 0.206 H 0.0 **** 0.0
29475 H 29.765 28.414 1.438 H 0.0 **** 0.0
29476 C 28.821 25.866 92.334 C 0.0 **** 0.0
29477 H 28.71 25.233 91.453 H 0.0 **** 0.0
29478 H 29.001 25.242 93.209 H 0.0 **** 0.0
29479 H 27.909 26.445 92.482 H 0.0 **** 0.0
29480 H 29.662 26.544 92.19 H 0.0 **** 0.0
29481 C 17.15 92.129 15.844 C 0.0 **** 0.0
29482 H 17.737 91.465 15.208 H 0.0 **** 0.0
29483 H 16.866 93.016 15.278 H 0.0 **** 0.0
29484 H 17.745 92.423 16.708 H 0.0 **** 0.0
29485 H 16.253 91.609 16.18 H 0.0 **** 0.0
29486 C 80.072 35.35 33.008 C 0.0 **** 0.0
29487 H 80.509 35.911 32.182 H 0.0 **** 0.0
29488 H 80.389 35.789 33.954 H 0.0 **** 0.0
29489 H 80.406 34.313 32.959 H 0.0 **** 0.0
29490 H 78.985 35.386 32.936 H 0.0 **** 0.0
29491 C 28.79 82.599 32.377 C 0.0 **** 0.0
29492 H 28.378 82.632 33.385 H 0.0 **** 0.0
29493 H 28.212 83.255 31.726 H 0.0 **** 0.0
29494 H 28.742 81.577 31.999 H 0.0 **** 0.0
29495 H 29.828 82.929 32.398 H 0.0 **** 0.0
29496 C 24.755 11.104 32.02 C 0.0 **** 0.0
29497 H 23.704 11.109 31.731 H 0.0 **** 0.0
29498 H 24.854 11.493 33.034 H 0.0 **** 0.0
29499 H 25.323 11.731 31.333 H 0.0 **** 0.0
29500 H 25.137 10.084 31.983 H 0.0 **** 0.0
29501 C 87.379 58.754 70.666 C 0.0 **** 0.0
29502 H 87.44 59.569 71.386 H 0.0 **** 0.0
29503 H 86.986 57.864 71.157 H 0.0 **** 0.0
29504 H 88.374 58.543 70.272 H 0.0 **** 0.0
29505 H 86.718 59.04 69.848 H 0.0 **** 0.0
29506 C 9.041 43.011 49.698 C 0.0 **** 0.0
29507 H 8.951 42.813 50.766 H 0.0 **** 0.0
29508 H 9.643 43.907 49.545 H 0.0 **** 0.0
29509 H 8.05 43.161 49.271 H 0.0 **** 0.0
29510 H 9.522 42.163 49.211 H 0.0 **** 0.0
29511 C 30.236 37.353 53.72 C 0.0 **** 0.0
29512 H 29.942 37.393 54.769 H 0.0 **** 0.0
29513 H 29.414 37.712 53.1 H 0.0 **** 0.0
29514 H 30.475 36.324 53.449 H 0.0 **** 0.0
29515 H 31.112 37.982 53.564 H 0.0 **** 0.0
29516 C 2.885 18.814 26.875 C 0.0 **** 0.0
29517 H 2.158 18.709 27.681 H 0.0 **** 0.0
29518 H 3.891 18.838 27.294 H 0.0 **** 0.0
29519 H 2.694 19.74 26.333 H 0.0 **** 0.0
29520 H 2.795 17.968 26.193 H 0.0 **** 0.0
29521 C 37.901 68.105 84.57 C 0.0 **** 0.0
29522 H 36.891 67.809 84.853 H 0.0 **** 0.0
29523 H 38.55 67.229 84.574 H 0.0 **** 0.0
29524 H 38.277 68.84 85.281 H 0.0 **** 0.0
29525 H 37.884 68.541 83.571 H 0.0 **** 0.0
29526 C 41.199 92.891 43.645 C 0.0 **** 0.0
29527 H 40.212 93.35 43.697 H 0.0 **** 0.0
29528 H 41.96 93.67 43.592 H 0.0 **** 0.0
29529 H 41.26 92.261 42.758 H 0.0 **** 0.0
29530 H 41.363 92.283 44.535 H 0.0 **** 0.0
29531 C 52.514 68.167 62.702 C 0.0 **** 0.0
29532 H 52.721 68.44 61.667 H 0.0 **** 0.0
29533 H 53.202 68.697 63.362 H 0.0 **** 0.0
29534 H 52.644 67.093 62.827 H 0.0 **** 0.0
29535 H 51.488 68.441 62.95 H 0.0 **** 0.0
29536 C 70.537 83.963 29.335 C 0.0 **** 0.0
29537 H 69.976 83.043 29.5 H 0.0 **** 0.0
29538 H 70.622 84.509 30.275 H 0.0 **** 0.0
29539 H 70.016 84.579 28.602 H 0.0 **** 0.0
29540 H 71.533 83.721 28.965 H 0.0 **** 0.0
29541 C 73.437 67.575 57.88 C 0.0 **** 0.0
29542 H 73.301 67.727 56.809 H 0.0 **** 0.0
29543 H 73.253 66.529 58.125 H 0.0 **** 0.0
29544 H 72.737 68.206 58.428 H 0.0 **** 0.0
29545 H 74.458 67.839 58.157 H 0.0 **** 0.0
29546 C 44.271 29.817 22.51 C 0.0 **** 0.0
29547 H 44.735 28.857 22.739 H 0.0 **** 0.0
29548 H 45.041 30.585 22.44 H 0.0 **** 0.0
29549 H 43.568 30.077 23.301 H 0.0 **** 0.0
29550 H 43.74 29.746 21.56 H 0.0 **** 0.0
29551 C 31.676 13.948 37.827 C 0.0 **** 0.0
29552 H 32.501 13.239 37.763 H 0.0 **** 0.0
29553 H 30.879 13.524 38.439 H 0.0 **** 0.0
29554 H 31.296 14.154 36.827 H 0.0 **** 0.0
29555 H 32.028 14.874 38.281 H 0.0 **** 0.0
29556 C 59.384 29.971 61.377 C 0.0 **** 0.0
29557 H 59.949 30.716 60.817 H 0.0 **** 0.0
29558 H 58.539 30.452 61.87 H 0.0 **** 0.0
29559 H 60.03 29.513 62.126 H 0.0 **** 0.0
29560 H 59.018 29.204 60.694 H 0.0 **** 0.0
29561 C 51.354 56.163 48.714 C 0.0 **** 0.0
29562 H 51.032 56.237 47.675 H 0.0 **** 0.0
29563 H 52.317 55.653 48.76 H 0.0 **** 0.0
29564 H 50.616 55.597 49.283 H 0.0 **** 0.0
29565 H 51.451 57.163 49.136 H 0.0 **** 0.0
29566 C 74.594 91.114 80.041 C 0.0 **** 0.0
29567 H 73.687 91.364 80.592 H 0.0 **** 0.0
29568 H 75.174 90.384 80.607 H 0.0 **** 0.0
29569 H 75.189 92.015 79.893 H 0.0 **** 0.0
29570 H 74.325 90.692 79.073 H 0.0 **** 0.0
29571 C 20.258 51.541 25.076 C 0.0 **** 0.0
29572 H 19.884 51.469 24.055 H 0.0 **** 0.0
29573 H 20.79 52.485 25.202 H 0.0 **** 0.0
29574 H 20.938 50.712 25.274 H 0.0 **** 0.0
29575 H 19.421 51.499 25.773 H 0.0 **** 0.0
29576 C 48.674 76.485 4.498 C 0.0 **** 0.0
29577 H 49.762 76.41 4.501 H 0.0 **** 0.0
29578 H 48.244 75.519 4.234 H 0.0 **** 0.0
29579 H 48.365 77.233 3.767 H 0.0 **** 0.0
29580 H 48.328 76.78 5.488 H 0.0 **** 0.0
29581 C 80.993 71.553 8.238 C 0.0 **** 0.0
29582 H 80.957 71.417 9.318 H 0.0 **** 0.0
29583 H 82.024 71.729 7.928 H 0.0 **** 0.0
29584 H 80.378 72.408 7.958 H 0.0 **** 0.0
29585 H 80.614 70.657 7.746 H 0.0 **** 0.0
29586 C 4.105 52.963 41.562 C 0.0 **** 0.0
29587 H 4.106 52.733 40.496 H 0.0 **** 0.0
29588 H 5.095 53.309 41.86 H 0.0 **** 0.0
29589 H 3.847 52.067 42.127 H 0.0 **** 0.0
29590 H 3.371 53.743 41.763 H 0.0 **** 0.0
29591 C 89.452 2.52 9.967 C 0.0 **** 0.0
29592 H 90.077 3.308 10.388 H 0.0 **** 0.0
29593 H 89.658 1.581 10.481 H 0.0 **** 0.0
29594 H 89.673 2.409 8.906 H 0.0 **** 0.0
29595 H 88.402 2.782 10.095 H 0.0 **** 0.0
29596 C 21.783 22.595 3.663 C 0.0 **** 0.0
29597 H 22.009 21.617 3.237 H 0.0 **** 0.0
29598 H 21.42 22.471 4.684 H 0.0 **** 0.0
29599 H 21.016 23.084 3.062 H 0.0 **** 0.0
29600 H 22.685 23.206 3.669 H 0.0 **** 0.0
29601 C 16.381 74.275 96.117 C 0.0 **** 0.0
29602 H 17.217 74.592 95.493 H 0.0 **** 0.0
29603 H 16.149 73.23 95.91 H 0.0 **** 0.0
29604 H 15.51 74.892 95.897 H 0.0 **** 0.0
29605 H 16.65 74.387 97.167 H 0.0 **** 0.0
29606 C 54.387 76.273 89.036 C 0.0 **** 0.0
29607 H 54.191 76.244 87.964 H 0.0 **** 0.0
29608 H 54.054 75.34 89.491 H 0.0 **** 0.0
29609 H 53.846 77.108 89.481 H 0.0 **** 0.0
29610 H 55.456 76.399 89.206 H 0.0 **** 0.0
29611 C 88.749 93.767 36.85 C 0.0 **** 0.0
29612 H 89.649 93.637 37.452 H 0.0 **** 0.0
29613 H 89.03 93.984 35.82 H 0.0 **** 0.0
29614 H 88.162 94.594 37.25 H 0.0 **** 0.0
29615 H 88.156 92.852 36.881 H 0.0 **** 0.0
29616 C 93.012 93.947 4.551 C 0.0 **** 0.0
29617 H 93.203 93.482 3.584 H 0.0 **** 0.0
29618 H 93.124 95.028 4.463 H 0.0 **** 0.0
29619 H 93.724 93.567 5.284 H 0.0 **** 0.0
29620 H 91.998 93.712 4.873 H 0.0 **** 0.0
29621 C 21.846 39.314 31.554 C 0.0 **** 0.0
29622 H 22.529 38.534 31.89 H 0.0 **** 0.0
29623 H 22.134 39.643 30.555 H 0.0 **** 0.0
29624 H 21.891 40.157 32.242 H 0.0 **** 0.0
29625 H 20.83 38.919 31.527 H 0.0 **** 0.0
29626 C 7.693 36.232 93.529 C 0.0 **** 0.0
29627 H 8.251 35.354 93.205 H 0.0 **** 0.0
29628 H 8.314 36.833 94.194 H 0.0 **** 0.0
29629 H 6.794 35.916 94.057 H 0.0 **** 0.0
29630 H 7.413 36.826 92.658 H 0.0 **** 0.0
29631 C 30.971 84.451 57.316 C 0.0 **** 0.0
29632 H 30.507 84.773 58.248 H 0.0 **** 0.0
29633 H 31.943 84.006 57.529 H 0.0 **** 0.0
29634 H 31.1 85.31 56.658 H 0.0 **** 0.0
29635 H 30.332 83.713 56.829 H 0.0 **** 0.0
29636 C 97.217 4.455 86.998 C 0.0 **** 0.0
29637 H 96.452 4.173 87.721 H 0.0 **** 0.0
29638 H 96.75 4.649 86.032 H 0.0 **** 0.0
29639 H 97.938 3.643 86.897 H 0.0 **** 0.0
29640 H 97.728 5.354 87.343 H 0.0 **** 0.0
29641 C 38.203 8.762 37.052 C 0.0 **** 0.0
29642 H 38.882 8.03 36.616 H 0.0 **** 0.0
29643 H 37.313 8.848 36.428 H 0.0 **** 0.0
29644 H 38.701 9.73 37.109 H 0.0 **** 0.0
29645 H 37.916 8.441 38.053 H 0.0 **** 0.0
29646 C 97.379 51.111 9.155 C 0.0 **** 0.0
29647 H 97.666 51.241 10.198 H 0.0 **** 0.0
29648 H 96.932 50.126 9.021 H 0.0 **** 0.0
29649 H 98.262 51.199 8.522 H 0.0 **** 0.0
29650 H 96.656 51.879 8.879 H 0.0 **** 0.0
29651 C 87.62 10.58 27.053 C 0.0 **** 0.0
29652 H 87.854 11.509 26.533 H 0.0 **** 0.0
29653 H 86.76 10.106 26.581 H 0.0 **** 0.0
29654 H 87.389 10.797 28.096 H 0.0 **** 0.0
29655 H 88.478 9.91 27.002 H 0.0 **** 0.0
29656 C 43.681 84.834 66.974 C 0.0 **** 0.0
29657 H 43.211 84.665 67.943 H 0.0 **** 0.0
29658 H 42.922 84.807 66.192 H 0.0 **** 0.0
29659 H 44.422 84.057 66.789 H 0.0 **** 0.0
29660 H 44.169 85.809 66.973 H 0.0 **** 0.0
29661 C 92.627 77.138 16.236 C 0.0 **** 0.0
29662 H 92.334 77.624 17.167 H 0.0 **** 0.0
29663 H 91.746 76.989 15.611 H 0.0 **** 0.0
29664 H 93.082 76.173 16.459 H 0.0 **** 0.0
29665 H 93.345 77.765 15.709 H 0.0 **** 0.0
29666 C 12.677 29.015 93.273 C 0.0 **** 0.0
29667 H 13.347 28.205 93.562 H 0.0 **** 0.0
29668 H 13.105 29.556 92.43 H 0.0 **** 0.0
29669 H 12.547 29.696 94.115 H 0.0 **** 0.0
29670 H 11.71 28.601 92.988 H 0.0 **** 0.0
29671 C 66.542 61.924 82.137 C 0.0 **** 0.0
29672 H 67.213 61.065 82.16 H 0.0 **** 0.0
29673 H 66.446 62.336 83.142 H 0.0 **** 0.0
29674 H 65.562 61.61 81.777 H 0.0 **** 0.0
29675 H 66.948 62.684 81.47 H 0.0 **** 0.0
29676 C 64.94 29.178 47.09 C 0.0 **** 0.0
29677 H 65.041 29.1 48.173 H 0.0 **** 0.0
29678 H 65.776 29.751 46.688 H 0.0 **** 0.0
29679 H 64.004 29.681 46.848 H 0.0 **** 0.0
29680 H 64.94 28.18 46.653 H 0.0 **** 0.0
29681 C 90.953 82.128 15.902 C 0.0 **** 0.0
29682 H 90.525 82.82 15.176 H 0.0 **** 0.0
29683 H 90.181 81.816 16.605 H 0.0 **** 0.0
29684 H 91.76 82.623 16.443 H 0.0 **** 0.0
29685 H 91.347 81.254 15.382 H 0.0 **** 0.0
29686 C 63.697 33.475 49.971 C 0.0 **** 0.0
29687 H 62.837 33.484 49.301 H 0.0 **** 0.0
29688 H 63.491 34.106 50.835 H 0.0 **** 0.0
29689 H 64.572 33.856 49.443 H 0.0 **** 0.0
29690 H 63.889 32.455 50.302 H 0.0 **** 0.0
29691 C 82.716 48.902 78.795 C 0.0 **** 0.0
29692 H 82.19 49.841 78.968 H 0.0 **** 0.0
29693 H 82.382 48.467 77.853 H 0.0 **** 0.0
29694 H 82.503 48.211 79.611 H 0.0 **** 0.0
29695 H 83.789 49.09 78.75 H 0.0 **** 0.0
29696 C 76.898 6.533 35.756 C 0.0 **** 0.0
29697 H 76.637 6.338 34.716 H 0.0 **** 0.0
29698 H 77.677 5.838 36.071 H 0.0 **** 0.0
29699 H 76.016 6.401 36.383 H 0.0 **** 0.0
29700 H 77.263 7.556 35.852 H 0.0 **** 0.0
29701 C 65.676 40.144 36.255 C 0.0 **** 0.0
29702 H 65.867 40.326 35.197 H 0.0 **** 0.0
29703 H 66.487 40.568 36.848 H 0.0 **** 0.0
29704 H 65.616 39.071 36.434 H 0.0 **** 0.0
29705 H 64.734 40.613 36.539 H 0.0 **** 0.0
29706 C 48.474 88.539 44.573 C 0.0 **** 0.0
29707 H 48.204 89.255 43.797 H 0.0 **** 0.0
29708 H 49.555 88.392 44.571 H 0.0 **** 0.0
29709 H 47.978 87.588 44.379 H 0.0 **** 0.0
29710 H 48.161 88.92 45.545 H 0.0 **** 0.0
29711 C 23.279 53.252 53.721 C 0.0 **** 0.0
29712 H 24.018 53.002 52.961 H 0.0 **** 0.0
29713 H 23.012 54.306 53.636 H 0.0 **** 0.0
29714 H 23.695 53.062 54.71 H 0.0 **** 0.0
29715 H 22.389 52.639 53.578 H 0.0 **** 0.0
29716 C 38.625 85.613 34.983 C 0.0 **** 0.0
29717 H 38.943 85.731 36.02 H 0.0 **** 0.0
29718 H 39.489 85.367 34.365 H 0.0 **** 0.0
29719 H 38.179 86.543 34.632 H 0.0 **** 0.0
29720 H 37.891 84.81 34.918 H 0.0 **** 0.0
29721 C 71.928 36.585 3.237 C 0.0 **** 0.0
29722 H 71.294 35.9 3.8 H 0.0 **** 0.0
29723 H 72.883 36.7 3.751 H 0.0 **** 0.0
29724 H 71.437 37.555 3.161 H 0.0 **** 0.0
29725 H 72.099 36.184 2.238 H 0.0 **** 0.0
29726 C 53.719 31.176 77.225 C 0.0 **** 0.0
29727 H 53.687 31.187 76.136 H 0.0 **** 0.0
29728 H 52.777 31.557 77.62 H 0.0 **** 0.0
29729 H 54.539 31.806 77.57 H 0.0 **** 0.0
29730 H 53.874 30.155 77.574 H 0.0 **** 0.0
29731 C 88.745 66.67 22.507 C 0.0 **** 0.0
29732 H 88.567 67.685 22.861 H 0.0 **** 0.0
29733 H 89.173 66.704 21.505 H 0.0 **** 0.0
29734 H 87.802 66.124 22.482 H 0.0 **** 0.0
29735 H 89.437 66.167 23.182 H 0.0 **** 0.0
29736 C 58.532 57.065 68.985 C 0.0 **** 0.0
29737 H 58.748 56.628 69.961 H 0.0 **** 0.0
29738 H 59.309 57.786 68.731 H 0.0 **** 0.0
29739 H 57.566 57.568 69.019 H 0.0 **** 0.0
29740 H 58.506 56.277 68.233 H 0.0 **** 0.0
29741 C 81.739 10.88 25.26 C 0.0 **** 0.0
29742 H 81.679 10.464 24.254 H 0.0 **** 0.0
29743 H 80.907 10.506 25.857 H 0.0 **** 0.0
29744 H 81.688 11.967 25.206 H 0.0 **** 0.0
29745 H 82.681 10.582 25.72 H 0.0 **** 0.0
29746 C 50.619 38.272 29.168 C 0.0 **** 0.0
29747 H 49.889 37.905 29.889 H 0.0 **** 0.0
29748 H 51.416 37.538 29.053 H 0.0 **** 0.0
29749 H 51.039 39.213 29.522 H 0.0 **** 0.0
29750 H 50.13 38.432 28.207 H 0.0 **** 0.0
29751 C 39.513 93.358 3.048 C 0.0 **** 0.0
29752 H 39.416 93.121 1.988 H 0.0 **** 0.0
29753 H 39.001 94.298 3.258 H 0.0 **** 0.0
29754 H 40.568 93.454 3.303 H 0.0 **** 0.0
29755 H 39.066 92.56 3.641 H 0.0 **** 0.0
29756 C 5.542 65.472 73.254 C 0.0 **** 0.0
29757 H 6.102 65.952 72.451 H 0.0 **** 0.0
29758 H 6.156 65.438 74.154 H 0.0 **** 0.0
29759 H 5.277 64.458 72.956 H 0.0 **** 0.0
29760 H 4.634 66.042 73.454 H 0.0 **** 0.0
29761 C 70.884 49.625 20.98 C 0.0 **** 0.0
29762 H 70.959 50.678 20.711 H 0.0 **** 0.0
29763 H 70.229 49.517 21.844 H 0.0 **** 0.0
29764 H 71.874 49.24 21.223 H 0.0 **** 0.0
29765 H 70.473 49.065 20.14 H 0.0 **** 0.0
29766 C 18.419 37.982 49.053 C 0.0 **** 0.0
29767 H 18.866 36.989 49.005 H 0.0 **** 0.0
29768 H 17.396 37.902 49.418 H 0.0 **** 0.0
29769 H 18.417 38.427 48.057 H 0.0 **** 0.0
29770 H 19.0 38.61 49.729 H 0.0 **** 0.0
29771 C 60.917 3.62 19.318 C 0.0 **** 0.0
29772 H 61.204 2.576 19.442 H 0.0 **** 0.0
29773 H 61.743 4.262 19.625 H 0.0 **** 0.0
29774 H 60.043 3.832 19.933 H 0.0 **** 0.0
29775 H 60.679 3.81 18.271 H 0.0 **** 0.0
29776 C 88.134 26.359 76.154 C 0.0 **** 0.0
29777 H 88.055 26.41 75.068 H 0.0 **** 0.0
29778 H 87.257 25.854 76.559 H 0.0 **** 0.0
29779 H 88.194 27.368 76.561 H 0.0 **** 0.0
29780 H 89.032 25.804 76.426 H 0.0 **** 0.0
29781 C 60.315 82.77 51.824 C 0.0 **** 0.0
29782 H 61.006 83.558 52.124 H 0.0 **** 0.0
29783 H 59.374 83.216 51.502 H 0.0 **** 0.0
29784 H 60.133 82.105 52.668 H 0.0 **** 0.0
29785 H 60.749 82.202 51.001 H 0.0 **** 0.0
29786 C 88.835 16.431 93.625 C 0.0 **** 0.0
29787 H 89.874 16.146 93.789 H 0.0 **** 0.0
29788 H 88.385 15.759 92.894 H 0.0 **** 0.0
29789 H 88.793 17.455 93.252 H 0.0 **** 0.0
29790 H 88.287 16.364 94.565 H 0.0 **** 0.0
29791 C 37.168 61.149 20.089 C 0.0 **** 0.0
29792 H 38.221 61.155 19.806 H 0.0 **** 0.0
29793 H 37.014 61.824 20.93 H 0.0 **** 0.0
29794 H 36.874 60.139 20.375 H 0.0 **** 0.0
29795 H 36.563 61.477 19.244 H 0.0 **** 0.0
29796 C 29.378 79.144 23.245 C 0.0 **** 0.0
29797 H 29.967 79.203 24.16 H 0.0 **** 0.0
29798 H 28.414 79.628 23.401 H 0.0 **** 0.0
29799 H 29.222 78.098 22.981 H 0.0 **** 0.0
29800 H 29.911 79.647 22.438 H 0.0 **** 0.0
29801 C 41.961 19.273 96.297 C 0.0 **** 0.0
29802 H 41.352 20.124 96.601 H 0.0 **** 0.0
29803 H 41.322 18.402 96.153 H 0.0 **** 0.0
29804 H 42.698 19.059 97.071 H 0.0 **** 0.0
29805 H 42.472 19.507 95.363 H 0.0 **** 0.0
29806 C 1.526 22.64 45.009 C 0.0 **** 0.0
29807 H 0.921 22.195 44.219 H 0.0 **** 0.0
29808 H 0.969 23.451 45.479 H 0.0 **** 0.0
29809 H 2.449 23.032 44.583 H 0.0 **** 0.0
29810 H 1.763 21.882 45.755 H 0.0 **** 0.0
29811 C 93.99 18.482 51.261 C 0.0 **** 0.0
29812 H 94.363 17.832 52.052 H 0.0 **** 0.0
29813 H 93.56 17.874 50.465 H 0.0 **** 0.0
29814 H 94.812 19.076 50.861 H 0.0 **** 0.0
29815 H 93.226 19.145 51.666 H 0.0 **** 0.0
29816 C 32.754 1.633 47.023 C 0.0 **** 0.0
29817 H 33.162 2.125 46.14 H 0.0 **** 0.0
29818 H 32.876 0.554 46.925 H 0.0 **** 0.0
29819 H 31.694 1.872 47.114 H 0.0 **** 0.0
29820 H 33.283 1.98 47.91 H 0.0 **** 0.0
29821 C 17.201 64.434 9.043 C 0.0 **** 0.0
29822 H 17.162 63.884 8.102 H 0.0 **** 0.0
29823 H 16.364 64.134 9.674 H 0.0 **** 0.0
29824 H 17.139 65.503 8.841 H 0.0 **** 0.0
29825 H 18.138 64.214 9.553 H 0.0 **** 0.0
29826 C 48.724 53.617 88.787 C 0.0 **** 0.0
29827 H 48.712 52.795 89.502 H 0.0 **** 0.0
29828 H 48.415 54.536 89.285 H 0.0 **** 0.0
29829 H 48.038 53.398 87.969 H 0.0 **** 0.0
29830 H 49.733 53.74 88.392 H 0.0 **** 0.0
29831 C 65.292 13.731 33.712 C 0.0 **** 0.0
29832 H 64.311 13.923 34.147 H 0.0 **** 0.0
29833 H 65.171 13.368 32.69 H 0.0 **** 0.0
29834 H 65.811 12.979 34.305 H 0.0 **** 0.0
29835 H 65.873 14.653 33.704 H 0.0 **** 0.0
29836 C 70.24 10.872 21.551 C 0.0 **** 0.0
29837 H 69.591 11.731 21.722 H 0.0 **** 0.0
29838 H 71.182 11.209 21.118 H 0.0 **** 0.0
29839 H 69.752 10.179 20.866 H 0.0 **** 0.0
29840 H 70.434 10.37 22.499 H 0.0 **** 0.0
29841 C 55.527 76.297 91.859 C 0.0 **** 0.0
29842 H 54.572 76.736 91.571 H 0.0 **** 0.0
29843 H 55.478 75.214 91.747 H 0.0 **** 0.0
29844 H 55.743 76.546 92.898 H 0.0 **** 0.0
29845 H 56.317 76.693 91.22 H 0.0 **** 0.0
29846 C 51.171 54.199 55.24 C 0.0 **** 0.0
29847 H 50.904 53.448 54.497 H 0.0 **** 0.0
29848 H 50.328 54.874 55.392 H 0.0 **** 0.0
29849 H 52.032 54.767 54.888 H 0.0 **** 0.0
29850 H 51.419 53.708 56.18 H 0.0 **** 0.0
29851 C 34.151 64.645 20.605 C 0.0 **** 0.0
29852 H 33.963 65.358 21.407 H 0.0 **** 0.0
29853 H 34.563 63.727 21.025 H 0.0 **** 0.0
29854 H 34.862 65.072 19.898 H 0.0 **** 0.0
29855 H 33.216 64.422 20.091 H 0.0 **** 0.0
29856 C 73.078 53.761 4.814 C 0.0 **** 0.0
29857 H 73.029 53.729 5.902 H 0.0 **** 0.0
29858 H 72.218 53.237 4.396 H 0.0 **** 0.0
29859 H 73.996 53.279 4.478 H 0.0 **** 0.0
29860 H 73.069 54.798 4.48 H 0.0 **** 0.0
29861 C 24.823 23.622 34.868 C 0.0 **** 0.0
29862 H 25.169 24.44 34.235 H 0.0 **** 0.0
29863 H 25.528 22.793 34.807 H 0.0 **** 0.0
29864 H 23.841 23.291 34.529 H 0.0 **** 0.0
29865 H 24.755 23.966 35.9 H 0.0 **** 0.0
29866 C 2.686 66.604 52.693 C 0.0 **** 0.0
29867 H 2.739 66.23 53.716 H 0.0 **** 0.0
29868 H 1.765 67.172 52.562 H 0.0 **** 0.0
29869 H 2.698 65.765 51.998 H 0.0 **** 0.0
29870 H 3.542 67.25 52.499 H 0.0 **** 0.0
29871 C 65.47 78.828 29.858 C 0.0 **** 0.0
29872 H 65.436 79.36 28.908 H 0.0 **** 0.0
29873 H 66.163 77.989 29.779 H 0.0 **** 0.0
29874 H 64.475 78.456 30.102 H 0.0 **** 0.0
29875 H 65.807 79.506 30.642 H 0.0 **** 0.0
29876 C 72.955 18.906 74.783 C 0.0 **** 0.0
29877 H 71.936 19.041 74.422 H 0.0 **** 0.0
29878 H 73.509 18.283 74.081 H 0.0 **** 0.0
29879 H 72.934 18.423 75.76 H 0.0 **** 0.0
29880 H 73.442 19.878 74.869 H 0.0 **** 0.0
29881 C 21.907 91.311 19.747 C 0.0 **** 0.0
29882 H 22.892 90.888 19.551 H 0.0 **** 0.0
29883 H 21.225 91.032 18.944 H 0.0 **** 0.0
29884 H 21.982 92.398 19.799 H 0.0 **** 0.0
29885 H 21.529 90.928 20.695 H 0.0 **** 0.0
29886 C 21.428 38.265 96.939 C 0.0 **** 0.0
29887 H 20.729 37.606 97.455 H 0.0 **** 0.0
29888 H 22.31 37.697 96.643 H 0.0 **** 0.0
29889 H 21.723 39.075 97.605 H 0.0 **** 0.0
29890 H 20.948 38.68 96.052 H 0.0 **** 0.0
29891 C 20.132 65.705 46.918 C 0.0 **** 0.0
29892 H 20.958 66.125 47.493 H 0.0 **** 0.0
29893 H 20.396 64.702 46.583 H 0.0 **** 0.0
29894 H 19.934 66.338 46.052 H 0.0 **** 0.0
29895 H 19.241 65.657 47.544 H 0.0 **** 0.0
29896 C 42.455 25.312 8.179 C 0.0 **** 0.0
29897 H 42.487 25.344 9.268 H 0.0 **** 0.0
29898 H 41.588 24.733 7.858 H 0.0 **** 0.0
29899 H 43.364 24.845 7.802 H 0.0 **** 0.0
29900 H 42.379 26.327 7.788 H 0.0 **** 0.0
29901 C 90.622 24.921 78.756 C 0.0 **** 0.0
29902 H 90.811 24.149 79.501 H 0.0 **** 0.0
29903 H 90.001 24.512 77.959 H 0.0 **** 0.0
29904 H 91.569 25.265 78.34 H 0.0 **** 0.0
29905 H 90.105 25.759 79.225 H 0.0 **** 0.0
29906 C 30.185 39.036 50.694 C 0.0 **** 0.0
29907 H 29.736 39.762 50.016 H 0.0 **** 0.0
29908 H 31.25 38.95 50.48 H 0.0 **** 0.0
29909 H 29.707 38.066 50.555 H 0.0 **** 0.0
29910 H 30.045 39.365 51.724 H 0.0 **** 0.0
29911 C 65.43 47.844 31.043 C 0.0 **** 0.0
29912 H 65.069 48.646 31.686 H 0.0 **** 0.0
29913 H 64.589 47.232 30.719 H 0.0 **** 0.0
29914 H 66.138 47.227 31.595 H 0.0 **** 0.0
29915 H 65.925 48.273 30.171 H 0.0 **** 0.0
29916 C 47.621 32.572 5.507 C 0.0 **** 0.0
29917 H 47.502 32.96 4.496 H 0.0 **** 0.0
29918 H 47.256 31.545 5.547 H 0.0 **** 0.0
29919 H 47.051 33.188 6.202 H 0.0 **** 0.0
29920 H 48.676 32.594 5.782 H 0.0 **** 0.0
29921 C 10.741 98.261 43.449 C 0.0 **** 0.0
29922 H 10.976 98.484 42.408 H 0.0 **** 0.0
29923 H 9.684 98.458 43.633 H 0.0 **** 0.0
29924 H 11.347 98.89 44.101 H 0.0 **** 0.0
29925 H 10.956 97.212 43.653 H 0.0 **** 0.0
29926 C 77.802 87.76 89.334 C 0.0 **** 0.0
29927 H 77.885 88.152 88.32 H 0.0 **** 0.0
29928 H 76.909 88.166 89.808 H 0.0 **** 0.0
29929 H 78.682 88.049 89.908 H 0.0 **** 0.0
29930 H 77.733 86.673 89.298 H 0.0 **** 0.0
29931 C 30.125 1.744 76.287 C 0.0 **** 0.0
29932 H 29.74 2.761 76.366 H 0.0 **** 0.0
29933 H 29.41 1.05 76.728 H 0.0 **** 0.0
29934 H 31.075 1.673 76.817 H 0.0 **** 0.0
29935 H 30.275 1.494 75.237 H 0.0 **** 0.0
29936 C 6.646 30.624 69.849 C 0.0 **** 0.0
29937 H 7.123 31.601 69.768 H 0.0 **** 0.0
29938 H 6.87 30.037 68.959 H 0.0 **** 0.0
29939 H 5.567 30.753 69.939 H 0.0 **** 0.0
29940 H 7.025 30.108 70.731 H 0.0 **** 0.0
29941 C 47.939 29.913 67.945 C 0.0 **** 0.0
29942 H 47.673 28.891 67.673 H 0.0 **** 0.0
29943 H 48.677 29.894 68.747 H 0.0 **** 0.0
29944 H 47.048 30.442 68.283 H 0.0 **** 0.0
29945 H 48.358 30.422 67.077 H 0.0 **** 0.0
29946 C 31.784 40.034 88.461 C 0.0 **** 0.0
29947 H 31.235 40.047 89.403 H 0.0 **** 0.0
29948 H 32.845 40.192 88.656 H 0.0 **** 0.0
29949 H 31.411 40.827 87.813 H 0.0 **** 0.0
29950 H 31.644 39.07 87.973 H 0.0 **** 0.0
29951 C 52.166 68.225 54.915 C 0.0 **** 0.0
29952 H 51.43 69.003 55.117 H 0.0 **** 0.0
29953 H 52.638 67.92 55.85 H 0.0 **** 0.0
29954 H 52.924 68.611 54.234 H 0.0 **** 0.0
29955 H 51.672 67.367 54.461 H 0.0 **** 0.0
29956 C 39.72 26.8 52.823 C 0.0 **** 0.0
29957 H 39.058 26.642 53.674 H 0.0 **** 0.0
29958 H 39.274 26.363 51.929 H 0.0 **** 0.0
29959 H 40.682 26.326 53.018 H 0.0 **** 0.0
29960 H 39.866 27.869 52.67 H 0.0 **** 0.0
29961 C 45.72 0.989 78.884 C 0.0 **** 0.0
29962 H 45.741 0.998 79.973 H 0.0 **** 0.0
29963 H 46.735 1.096 78.5 H 0.0 **** 0.0
29964 H 45.107 1.816 78.526 H 0.0 **** 0.0
29965 H 45.297 0.047 78.536 H 0.0 **** 0.0
29966 C 37.729 63.565 47.428 C 0.0 **** 0.0
29967 H 38.185 63.505 46.44 H 0.0 **** 0.0
29968 H 36.669 63.318 47.355 H 0.0 **** 0.0
29969 H 37.84 64.577 47.819 H 0.0 **** 0.0
29970 H 38.221 62.86 48.099 H 0.0 **** 0.0
29971 C 38.549 69.816 69.899 C 0.0 **** 0.0
29972 H 39.512 70.18 69.541 H 0.0 **** 0.0
29973 H 38.526 68.728 69.838 H 0.0 **** 0.0
29974 H 37.753 70.232 69.281 H 0.0 **** 0.0
29975 H 38.405 70.126 70.934 H 0.0 **** 0.0
29976 C 94.541 61.03 74.156 C 0.0 **** 0.0
29977 H 94.35 61.25 73.106 H 0.0 **** 0.0
29978 H 95.366 60.321 74.234 H 0.0 **** 0.0
29979 H 93.647 60.598 74.605 H 0.0 **** 0.0
29980 H 94.801 61.951 74.678 H 0.0 **** 0.0
29981 C 98.337 41.564 9.16 C 0.0 **** 0.0
29982 H 98.597 41.516 8.103 H 0.0 **** 0.0
29983 H 98.586 42.551 9.551 H 0.0 **** 0.0
29984 H 98.896 40.805 9.707 H 0.0 **** 0.0
29985 H 97.268 41.386 9.28 H 0.0 **** 0.0
29986 C 13.127 93.936 25.109 C 0.0 **** 0.0
29987 H 13.147 93.956 26.198 H 0.0 **** 0.0
29988 H 12.11 94.12 24.761 H 0.0 **** 0.0
29989 H 13.461 92.96 24.757 H 0.0 **** 0.0
29990 H 13.79 94.709 24.719 H 0.0 **** 0.0
29991 C 36.426 35.541 48.382 C 0.0 **** 0.0
29992 H 35.726 36.259 48.81 H 0.0 **** 0.0
29993 H 36.585 35.772 47.329 H 0.0 **** 0.0
29994 H 36.016 34.535 48.476 H 0.0 **** 0.0
29995 H 37.375 35.598 48.915 H 0.0 **** 0.0
29996 C 79.047 12.604 56.099 C 0.0 **** 0.0
29997 H 79.047 12.561 57.188 H 0.0 **** 0.0
29998 H 80.025 12.301 55.724 H 0.0 **** 0.0
29999 H 78.834 13.623 55.776 H 0.0 **** 0.0
30000 H 78.283 11.932 55.709 H 0.0 **** 0.0
30001 C 84.584 88.076 61.509 C 0.0 **** 0.0
30002 H 85.429 87.55 61.955 H 0.0 **** 0.0
30003 H 84.874 89.102 61.283 H 0.0 **** 0.0
30004 H 83.749 88.08 62.209 H 0.0 **** 0.0
30005 H 84.287 87.571 60.59 H 0.0 **** 0.0
30006 C 67.108 65.918 57.63 C 0.0 **** 0.0
30007 H 66.812 65.841 56.584 H 0.0 **** 0.0
30008 H 66.272 66.297 58.217 H 0.0 **** 0.0
30009 H 67.954 66.6 57.718 H 0.0 **** 0.0
30010 H 67.395 64.933 57.999 H 0.0 **** 0.0
30011 C 63.167 77.195 66.217 C 0.0 **** 0.0
30012 H 63.026 77.386 65.153 H 0.0 **** 0.0
30013 H 62.278 77.513 66.763 H 0.0 **** 0.0
30014 H 64.032 77.753 66.574 H 0.0 **** 0.0
30015 H 63.33 76.13 66.376 H 0.0 **** 0.0
30016 C 63.644 88.608 83.449 C 0.0 **** 0.0
30017 H 63.627 88.682 82.361 H 0.0 **** 0.0
30018 H 64.252 87.752 83.744 H 0.0 **** 0.0
30019 H 62.628 88.478 83.82 H 0.0 **** 0.0
30020 H 64.071 89.519 83.868 H 0.0 **** 0.0
30021 C 5.061 38.746 42.41 C 0.0 **** 0.0
30022 H 4.756 38.468 43.419 H 0.0 **** 0.0
30023 H 5.603 37.918 41.953 H 0.0 **** 0.0
30024 H 5.708 39.622 42.455 H 0.0 **** 0.0
30025 H 4.178 38.976 41.815 H 0.0 **** 0.0
30026 C 82.999 72.002 70.717 C 0.0 **** 0.0
30027 H 82.463 72.256 71.632 H 0.0 **** 0.0
30028 H 83.647 71.146 70.902 H 0.0 **** 0.0
30029 H 83.602 72.854 70.402 H 0.0 **** 0.0
30030 H 82.282 71.754 69.934 H 0.0 **** 0.0
30031 C 78.066 26.165 38.212 C 0.0 **** 0.0
30032 H 78.883 25.445 38.25 H 0.0 **** 0.0
30033 H 78.284 26.921 37.456 H 0.0 **** 0.0
30034 H 77.959 26.644 39.185 H 0.0 **** 0.0
30035 H 77.14 25.651 37.956 H 0.0 **** 0.0
30036 C 56.097 70.171 75.777 C 0.0 **** 0.0
30037 H 56.381 71.209 75.607 H 0.0 **** 0.0
30038 H 55.346 70.124 76.566 H 0.0 **** 0.0
30039 H 56.976 69.599 76.076 H 0.0 **** 0.0
30040 H 55.687 69.752 74.858 H 0.0 **** 0.0
30041 C 79.179 42.319 84.326 C 0.0 **** 0.0
30042 H 79.013 43.271 83.821 H 0.0 **** 0.0
30043 H 79.67 42.497 85.283 H 0.0 **** 0.0
30044 H 79.811 41.685 83.705 H 0.0 **** 0.0
30045 H 78.222 41.826 84.494 H 0.0 **** 0.0
30046 C 60.851 68.522 55.925 C 0.0 **** 0.0
30047 H 60.965 68.626 54.846 H 0.0 **** 0.0
30048 H 61.809 68.246 56.367 H 0.0 **** 0.0
30049 H 60.115 67.746 56.139 H 0.0 **** 0.0
30050 H 60.514 69.468 56.347 H 0.0 **** 0.0
30051 C 1.754 91.384 22.794 C 0.0 **** 0.0
30052 H 1.467 90.333 22.738 H 0.0 **** 0.0
30053 H 2.597 91.494 23.477 H 0.0 **** 0.0
30054 H 0.911 91.971 23.16 H 0.0 **** 0.0
30055 H 2.04 91.736 21.803 H 0.0 **** 0.0
30056 C 36.611 20.962 64.147 C 0.0 **** 0.0
30057 H 36.978 20.739 63.145 H 0.0 **** 0.0
30058 H 35.813 20.265 64.405 H 0.0 **** 0.0
30059 H 36.226 21.981 64.174 H 0.0 **** 0.0
30060 H 37.427 20.862 64.863 H 0.0 **** 0.0
30061 C 75.39 61.186 83.352 C 0.0 **** 0.0
30062 H 75.782 62.04 83.904 H 0.0 **** 0.0
30063 H 76.091 60.911 82.563 H 0.0 **** 0.0
30064 H 74.43 61.45 82.908 H 0.0 **** 0.0
30065 H 75.258 60.344 84.031 H 0.0 **** 0.0
30066 C 31.481 93.723 90.603 C 0.0 **** 0.0
30067 H 31.093 93.55 91.608 H 0.0 **** 0.0
30068 H 32.015 94.673 90.579 H 0.0 **** 0.0
30069 H 30.653 93.753 89.895 H 0.0 **** 0.0
30070 H 32.161 92.916 90.333 H 0.0 **** 0.0
30071 C 69.677 16.385 8.765 C 0.0 **** 0.0
30072 H 69.657 16.335 7.677 H 0.0 **** 0.0
30073 H 68.873 15.771 9.172 H 0.0 **** 0.0
30074 H 69.541 17.419 9.084 H 0.0 **** 0.0
30075 H 70.636 16.016 9.128 H 0.0 **** 0.0
30076 C 14.415 65.331 34.707 C 0.0 **** 0.0
30077 H 13.953 65.145 35.676 H 0.0 **** 0.0
30078 H 14.569 64.384 34.19 H 0.0 **** 0.0
30079 H 15.375 65.827 34.851 H 0.0 **** 0.0
30080 H 13.762 65.969 34.11 H 0.0 **** 0.0
30081 C 24.481 90.701 96.143 C 0.0 **** 0.0
30082 H 25.309 90.099 96.514 H 0.0 **** 0.0
30083 H 24.308 91.538 96.82 H 0.0 **** 0.0
30084 H 23.582 90.087 96.086 H 0.0 **** 0.0
30085 H 24.724 91.081 95.15 H 0.0 **** 0.0
30086 C 20.481 76.044 38.493 C 0.0 **** 0.0
30087 H 19.953 75.56 37.672 H 0.0 **** 0.0
30088 H 19.929 76.93 38.807 H 0.0 **** 0.0
30089 H 21.478 76.335 38.162 H 0.0 **** 0.0
30090 H 20.563 75.351 39.33 H 0.0 **** 0.0
30091 C 89.29 24.696 84.616 C 0.0 **** 0.0
30092 H 88.795 24.372 85.532 H 0.0 **** 0.0
30093 H 88.767 25.562 84.208 H 0.0 **** 0.0
30094 H 89.273 23.885 83.888 H 0.0 **** 0.0
30095 H 90.322 24.966 84.837 H 0.0 **** 0.0
30096 C 10.775 24.248 77.323 C 0.0 **** 0.0
30097 H 10.495 23.525 78.089 H 0.0 **** 0.0
30098 H 10.466 23.879 76.345 H 0.0 **** 0.0
30099 H 11.855 24.39 77.334 H 0.0 **** 0.0
30100 H 10.281 25.199 77.525 H 0.0 **** 0.0
30101 C 88.132 91.368 56.992 C 0.0 **** 0.0
30102 H 87.667 90.735 57.747 H 0.0 **** 0.0
30103 H 87.431 92.146 56.688 H 0.0 **** 0.0
30104 H 88.401 90.763 56.126 H 0.0 **** 0.0
30105 H 89.029 91.828 57.406 H 0.0 **** 0.0
30106 C 35.811 82.468 77.044 C 0.0 **** 0.0
30107 H 35.726 82.251 78.108 H 0.0 **** 0.0
30108 H 36.561 81.814 76.598 H 0.0 **** 0.0
30109 H 36.109 83.508 76.908 H 0.0 **** 0.0
30110 H 34.848 82.3 76.561 H 0.0 **** 0.0
30111 C 59.073 14.395 22.876 C 0.0 **** 0.0
30112 H 58.653 14.129 21.906 H 0.0 **** 0.0
30113 H 59.158 13.501 23.493 H 0.0 **** 0.0
30114 H 58.42 15.116 23.369 H 0.0 **** 0.0
30115 H 60.06 14.836 22.736 H 0.0 **** 0.0
30116 C 25.629 84.03 32.373 C 0.0 **** 0.0
30117 H 26.132 83.241 32.933 H 0.0 **** 0.0
30118 H 26.062 84.099 31.375 H 0.0 **** 0.0
30119 H 25.756 84.981 32.891 H 0.0 **** 0.0
30120 H 24.567 83.798 32.293 H 0.0 **** 0.0
30121 C 32.832 50.532 78.255 C 0.0 **** 0.0
30122 H 33.243 50.44 77.25 H 0.0 **** 0.0
30123 H 33.586 50.233 78.984 H 0.0 **** 0.0
30124 H 31.959 49.887 78.351 H 0.0 **** 0.0
30125 H 32.541 51.566 78.436 H 0.0 **** 0.0
30126 C 8.632 31.664 15.749 C 0.0 **** 0.0
30127 H 9.422 31.298 16.405 H 0.0 **** 0.0
30128 H 7.899 32.217 16.336 H 0.0 **** 0.0
30129 H 8.145 30.819 15.262 H 0.0 **** 0.0
30130 H 9.063 32.32 14.993 H 0.0 **** 0.0
30131 C 31.969 95.41 79.236 C 0.0 **** 0.0
30132 H 31.951 95.258 80.315 H 0.0 **** 0.0
30133 H 32.561 96.296 79.004 H 0.0 **** 0.0
30134 H 30.951 95.546 78.871 H 0.0 **** 0.0
30135 H 32.414 94.539 78.755 H 0.0 **** 0.0
30136 C 54.147 49.479 53.694 C 0.0 **** 0.0
30137 H 54.685 49.943 52.867 H 0.0 **** 0.0
30138 H 54.384 48.416 53.73 H 0.0 **** 0.0
30139 H 53.075 49.608 53.546 H 0.0 **** 0.0
30140 H 54.444 49.95 54.631 H 0.0 **** 0.0
30141 C 38.674 57.846 17.471 C 0.0 **** 0.0
30142 H 38.728 57.972 16.39 H 0.0 **** 0.0
30143 H 38.632 58.825 17.949 H 0.0 **** 0.0
30144 H 39.557 57.309 17.818 H 0.0 **** 0.0
30145 H 37.779 57.278 17.726 H 0.0 **** 0.0
30146 C 41.73 41.843 22.145 C 0.0 **** 0.0
30147 H 41.145 41.66 23.046 H 0.0 **** 0.0
30148 H 42.789 41.884 22.402 H 0.0 **** 0.0
30149 H 41.426 42.791 21.701 H 0.0 **** 0.0
30150 H 41.56 41.036 21.432 H 0.0 **** 0.0
30151 C 10.353 10.198 32.342 C 0.0 **** 0.0
30152 H 10.474 10.488 33.386 H 0.0 **** 0.0
30153 H 11.121 10.682 31.739 H 0.0 **** 0.0
30154 H 9.368 10.507 31.992 H 0.0 **** 0.0
30155 H 10.447 9.116 32.253 H 0.0 **** 0.0
30156 C 16.672 81.26 75.523 C 0.0 **** 0.0
30157 H 17.037 82.01 74.821 H 0.0 **** 0.0
30158 H 16.287 81.754 76.415 H 0.0 **** 0.0
30159 H 17.49 80.595 75.8 H 0.0 **** 0.0
30160 H 15.876 80.681 75.055 H 0.0 **** 0.0
30161 C 77.373 26.792 26.915 C 0.0 **** 0.0
30162 H 78.459 26.867 26.865 H 0.0 **** 0.0
30163 H 77.095 25.821 27.325 H 0.0 **** 0.0
30164 H 76.955 26.897 25.914 H 0.0 **** 0.0
30165 H 76.983 27.582 27.556 H 0.0 **** 0.0
30166 C 70.026 68.13 53.067 C 0.0 **** 0.0
30167 H 70.642 67.668 53.838 H 0.0 **** 0.0
30168 H 68.991 67.81 53.189 H 0.0 **** 0.0
30169 H 70.387 67.828 52.084 H 0.0 **** 0.0
30170 H 70.084 69.215 53.158 H 0.0 **** 0.0
30171 C 10.559 60.074 85.85 C 0.0 **** 0.0
30172 H 10.727 61.131 85.644 H 0.0 **** 0.0
30173 H 10.852 59.854 86.877 H 0.0 **** 0.0
30174 H 11.156 59.472 85.165 H 0.0 **** 0.0
30175 H 9.503 59.841 85.714 H 0.0 **** 0.0
30176 C 26.973 60.288 35.545 C 0.0 **** 0.0
30177 H 26.916 61.143 34.872 H 0.0 **** 0.0
30178 H 26.025 59.751 35.531 H 0.0 **** 0.0
30179 H 27.18 60.636 36.557 H 0.0 **** 0.0
30180 H 27.773 59.622 35.219 H 0.0 **** 0.0
30181 C 42.616 2.293 73.573 C 0.0 **** 0.0
30182 H 42.073 3.181 73.897 H 0.0 **** 0.0
30183 H 42.731 2.313 72.489 H 0.0 **** 0.0
30184 H 42.06 1.401 73.864 H 0.0 **** 0.0
30185 H 43.6 2.277 74.043 H 0.0 **** 0.0
30186 C 31.62 94.27 22.532 C 0.0 **** 0.0
30187 H 32.689 94.258 22.742 H 0.0 **** 0.0
30188 H 31.069 94.04 23.445 H 0.0 **** 0.0
30189 H 31.391 93.523 21.772 H 0.0 **** 0.0
30190 H 31.331 95.257 22.172 H 0.0 **** 0.0
30191 C 15.223 1.108 65.677 C 0.0 **** 0.0
30192 H 14.425 0.925 66.397 H 0.0 **** 0.0
30193 H 15.066 0.486 64.796 H 0.0 **** 0.0
30194 H 16.184 0.861 66.13 H 0.0 **** 0.0
30195 H 15.217 2.159 65.387 H 0.0 **** 0.0
30196 C 5.432 71.44 23.252 C 0.0 **** 0.0
30197 H 5.365 71.836 24.265 H 0.0 **** 0.0
30198 H 5.308 70.357 23.276 H 0.0 **** 0.0
30199 H 6.407 71.685 22.83 H 0.0 **** 0.0
30200 H 4.648 71.882 22.637 H 0.0 **** 0.0
30201 C 50.646 92.091 54.728 C 0.0 **** 0.0
30202 H 50.908 91.902 55.769 H 0.0 **** 0.0
30203 H 51.17 92.981 54.379 H 0.0 **** 0.0
30204 H 49.57 92.247 54.647 H 0.0 **** 0.0
30205 H 50.936 91.235 54.119 H 0.0 **** 0.0
30206 C 24.51 88.321 67.252 C 0.0 **** 0.0
30207 H 24.674 88.64 66.223 H 0.0 **** 0.0
30208 H 25.141 88.909 67.92 H 0.0 **** 0.0
30209 H 24.762 87.265 67.35 H 0.0 **** 0.0
30210 H 23.463 88.471 67.516 H 0.0 **** 0.0
30211 C 14.265 97.46 50.345 C 0.0 **** 0.0
30212 H 14.247 96.587 49.694 H 0.0 **** 0.0
30213 H 15.296 97.684 50.624 H 0.0 **** 0.0
30214 H 13.682 97.256 51.243 H 0.0 **** 0.0
30215 H 13.837 98.314 49.82 H 0.0 **** 0.0
30216 C 24.292 71.086 47.386 C 0.0 **** 0.0
30217 H 23.694 71.361 48.254 H 0.0 **** 0.0
30218 H 24.538 70.025 47.436 H 0.0 **** 0.0
30219 H 25.211 71.672 47.378 H 0.0 **** 0.0
30220 H 23.725 71.286 46.477 H 0.0 **** 0.0
30221 C 59.691 34.381 10.108 C 0.0 **** 0.0
30222 H 59.86 33.636 10.886 H 0.0 **** 0.0
30223 H 59.228 33.904 9.244 H 0.0 **** 0.0
30224 H 60.644 34.821 9.814 H 0.0 **** 0.0
30225 H 59.033 35.161 10.49 H 0.0 **** 0.0
30226 C 84.415 91.096 24.455 C 0.0 **** 0.0
30227 H 84.702 91.604 25.376 H 0.0 **** 0.0
30228 H 85.3 90.927 23.843 H 0.0 **** 0.0
30229 H 83.705 91.714 23.906 H 0.0 **** 0.0
30230 H 83.952 90.14 24.698 H 0.0 **** 0.0
30231 C 9.427 58.724 43.449 C 0.0 **** 0.0
30232 H 9.367 58.151 44.374 H 0.0 **** 0.0
30233 H 8.421 58.93 43.083 H 0.0 **** 0.0
30234 H 9.976 58.151 42.701 H 0.0 **** 0.0
30235 H 9.945 59.665 43.638 H 0.0 **** 0.0
30236 C 35.617 65.718 49.635 C 0.0 **** 0.0
30237 H 35.533 65.793 50.719 H 0.0 **** 0.0
30238 H 35.875 64.694 49.361 H 0.0 **** 0.0
30239 H 36.395 66.395 49.283 H 0.0 **** 0.0
30240 H 34.666 65.988 49.176 H 0.0 **** 0.0
30241 C 25.979 35.081 21.714 C 0.0 **** 0.0
30242 H 26.903 35.478 22.136 H 0.0 **** 0.0
30243 H 25.577 35.79 20.99 H 0.0 **** 0.0
30244 H 25.253 34.926 22.513 H 0.0 **** 0.0
30245 H 26.184 34.132 21.22 H 0.0 **** 0.0
30246 C 20.111 53.475 18.064 C 0.0 **** 0.0
30247 H 19.079 53.816 18.148 H 0.0 **** 0.0
30248 H 20.548 53.864 17.144 H 0.0 **** 0.0
30249 H 20.133 52.386 18.046 H 0.0 **** 0.0
30250 H 20.683 53.836 18.919 H 0.0 **** 0.0
30251 C 10.464 47.711 66.176 C 0.0 **** 0.0
30252 H 11.18 47.148 65.577 H 0.0 **** 0.0
30253 H 10.93 48.007 67.115 H 0.0 **** 0.0
30254 H 9.593 47.089 66.382 H 0.0 **** 0.0
30255 H 10.153 48.601 65.628 H 0.0 **** 0.0
30256 C 12.571 17.526 97.206 C 0.0 **** 0.0
30257 H 13.454 18.157 97.115 H 0.0 **** 0.0
30258 H 11.712 18.036 96.769 H 0.0 **** 0.0
30259 H 12.376 17.324 98.26 H 0.0 **** 0.0
30260 H 12.741 16.585 96.682 H 0.0 **** 0.0
30261 C 29.019 81.642 13.73 C 0.0 **** 0.0
30262 H 28.988 81.713 14.818 H 0.0 **** 0.0
30263 H 29.674 80.82 13.439 H 0.0 **** 0.0
30264 H 29.402 82.576 13.317 H 0.0 **** 0.0
30265 H 28.015 81.461 13.349 H 0.0 **** 0.0
30266 C 33.398 68.357 34.264 C 0.0 **** 0.0
30267 H 32.805 68.415 33.352 H 0.0 **** 0.0
30268 H 33.472 69.348 34.713 H 0.0 **** 0.0
30269 H 34.397 67.991 34.025 H 0.0 **** 0.0
30270 H 32.92 67.674 34.966 H 0.0 **** 0.0
30271 C 78.097 20.355 80.616 C 0.0 **** 0.0
30272 H 77.495 20.092 79.746 H 0.0 **** 0.0
30273 H 77.71 21.27 81.063 H 0.0 **** 0.0
30274 H 79.131 20.509 80.309 H 0.0 **** 0.0
30275 H 78.052 19.546 81.346 H 0.0 **** 0.0
30276 C 83.285 1.608 43.946 C 0.0 **** 0.0
30277 H 82.529 1.25 44.645 H 0.0 **** 0.0
30278 H 83.054 2.633 43.655 H 0.0 **** 0.0
30279 H 83.292 0.971 43.061 H 0.0 **** 0.0
30280 H 84.265 1.577 44.423 H 0.0 **** 0.0
30281 C 21.503 53.078 96.93 C 0.0 **** 0.0
30282 H 20.814 52.262 96.712 H 0.0 **** 0.0
30283 H 20.964 54.026 96.904 H 0.0 **** 0.0
30284 H 22.298 53.092 96.184 H 0.0 **** 0.0
30285 H 21.936 52.933 97.92 H 0.0 **** 0.0
30286 C 59.569 50.249 78.302 C 0.0 **** 0.0
30287 H 60.421 49.586 78.453 H 0.0 **** 0.0
30288 H 59.763 51.206 78.787 H 0.0 **** 0.0
30289 H 58.676 49.797 78.733 H 0.0 **** 0.0
30290 H 59.417 50.407 77.234 H 0.0 **** 0.0
30291 C 81.308 49.489 56.175 C 0.0 **** 0.0
30292 H 80.763 49.999 56.97 H 0.0 **** 0.0
30293 H 80.794 49.642 55.226 H 0.0 **** 0.0
30294 H 81.356 48.422 56.395 H 0.0 **** 0.0
30295 H 82.318 49.892 56.112 H 0.0 **** 0.0
30296 C 64.654 25.768 35.083 C 0.0 **** 0.0
30297 H 63.921 26.434 35.539 H 0.0 **** 0.0
30298 H 65.482 26.356 34.687 H 0.0 **** 0.0
30299 H 64.183 25.21 34.274 H 0.0 **** 0.0
30300 H 65.029 25.073 35.834 H 0.0 **** 0.0
30301 C 8.658 55.063 90.471 C 0.0 **** 0.0
30302 H 9.004 54.501 89.603 H 0.0 **** 0.0
30303 H 9.2 56.007 90.531 H 0.0 **** 0.0
30304 H 8.838 54.482 91.375 H 0.0 **** 0.0
30305 H 7.591 55.262 90.372 H 0.0 **** 0.0
30306 C 25.274 23.286 31.222 C 0.0 **** 0.0
30307 H 25.653 22.284 31.423 H 0.0 **** 0.0
30308 H 24.438 23.224 30.525 H 0.0 **** 0.0
30309 H 26.067 23.893 30.786 H 0.0 **** 0.0
30310 H 24.938 23.741 32.153 H 0.0 **** 0.0
30311 C 23.33 85.075 58.709 C 0.0 **** 0.0
30312 H 23.239 84.065 59.108 H 0.0 **** 0.0
30313 H 22.887 85.114 57.714 H 0.0 **** 0.0
30314 H 24.383 85.349 58.65 H 0.0 **** 0.0
30315 H 22.81 85.772 59.366 H 0.0 **** 0.0
30316 C 57.075 52.278 16.578 C 0.0 **** 0.0
30317 H 56.313 52.491 17.328 H 0.0 **** 0.0
30318 H 58.041 52.151 17.068 H 0.0 **** 0.0
30319 H 57.132 53.108 15.873 H 0.0 **** 0.0
30320 H 56.815 51.364 16.045 H 0.0 **** 0.0
30321 C 55.977 70.74 7.719 C 0.0 **** 0.0
30322 H 56.184 69.993 6.953 H 0.0 **** 0.0
30323 H 54.901 70.901 7.787 H 0.0 **** 0.0
30324 H 56.469 71.676 7.456 H 0.0 **** 0.0
30325 H 56.353 70.388 8.68 H 0.0 **** 0.0
30326 C 10.526 58.562 24.067 C 0.0 **** 0.0
30327 H 9.632 58.217 24.587 H 0.0 **** 0.0
30328 H 10.597 59.647 24.149 H 0.0 **** 0.0
30329 H 10.466 58.279 23.016 H 0.0 **** 0.0
30330 H 11.407 58.105 24.517 H 0.0 **** 0.0
30331 C 82.088 65.762 61.859 C 0.0 **** 0.0
30332 H 82.057 65.508 60.799 H 0.0 **** 0.0
30333 H 83.083 65.555 62.253 H 0.0 **** 0.0
30334 H 81.351 65.165 62.397 H 0.0 **** 0.0
30335 H 81.859 66.821 61.985 H 0.0 **** 0.0
30336 C 87.52 69.062 39.434 C 0.0 **** 0.0
30337 H 88.061 69.997 39.579 H 0.0 **** 0.0
30338 H 88.222 68.274 39.162 H 0.0 **** 0.0
30339 H 86.787 69.187 38.637 H 0.0 **** 0.0
30340 H 87.009 68.791 40.358 H 0.0 **** 0.0
30341 C 81.516 71.537 75.264 C 0.0 **** 0.0
30342 H 81.732 72.147 74.387 H 0.0 **** 0.0
30343 H 82.437 71.36 75.82 H 0.0 **** 0.0
30344 H 81.093 70.584 74.949 H 0.0 **** 0.0
30345 H 80.802 72.059 75.902 H 0.0 **** 0.0
30346 C 11.764 30.72 14.206 C 0.0 **** 0.0
30347 H 11.298 30.153 13.4 H 0.0 **** 0.0
30348 H 12.145 30.032 14.961 H 0.0 **** 0.0
30349 H 11.025 31.383 14.657 H 0.0 **** 0.0
30350 H 12.587 31.312 13.806 H 0.0 **** 0.0
30351 C 77.288 55.081 32.752 C 0.0 **** 0.0
30352 H 76.873 55.9 32.164 H 0.0 **** 0.0
30353 H 76.985 55.191 33.793 H 0.0 **** 0.0
30354 H 78.375 55.1 32.684 H 0.0 **** 0.0
30355 H 76.916 54.132 32.364 H 0.0 **** 0.0
30356 C 58.537 4.911 81.958 C 0.0 **** 0.0
30357 H 58.367 4.815 80.885 H 0.0 **** 0.0
30358 H 58.731 3.926 82.384 H 0.0 **** 0.0
30359 H 57.653 5.343 82.428 H 0.0 **** 0.0
30360 H 59.396 5.559 82.133 H 0.0 **** 0.0
30361 C 76.176 60.756 73.389 C 0.0 **** 0.0
30362 H 76.094 60.979 74.453 H 0.0 **** 0.0
30363 H 75.552 61.448 72.824 H 0.0 **** 0.0
30364 H 75.844 59.734 73.207 H 0.0 **** 0.0
30365 H 77.214 60.862 73.075 H 0.0 **** 0.0
30366 C 52.874 54.402 18.59 C 0.0 **** 0.0
30367 H 52.905 54.719 19.633 H 0.0 **** 0.0
30368 H 53.837 53.974 18.311 H 0.0 **** 0.0
30369 H 52.661 55.262 17.956 H 0.0 **** 0.0
30370 H 52.092 53.653 18.462 H 0.0 **** 0.0
30371 C 81.975 64.411 44.341 C 0.0 **** 0.0
30372 H 80.988 64.799 44.088 H 0.0 **** 0.0
30373 H 81.868 63.547 44.996 H 0.0 **** 0.0
30374 H 82.549 65.185 44.851 H 0.0 **** 0.0
30375 H 82.493 64.115 43.429 H 0.0 **** 0.0
30376 C 72.076 52.221 66.71 C 0.0 **** 0.0
30377 H 71.782 51.872 67.7 H 0.0 **** 0.0
30378 H 72.798 53.032 66.811 H 0.0 **** 0.0
30379 H 71.197 52.581 66.176 H 0.0 **** 0.0
30380 H 72.528 51.399 66.155 H 0.0 **** 0.0
30381 C 45.161 78.902 13.733 C 0.0 **** 0.0
30382 H 45.372 78.961 14.801 H 0.0 **** 0.0
30383 H 44.841 79.88 13.371 H 0.0 **** 0.0
30384 H 44.369 78.173 13.559 H 0.0 **** 0.0
30385 H 46.061 78.594 13.202 H 0.0 **** 0.0
30386 C 35.222 20.717 27.307 C 0.0 **** 0.0
30387 H 34.492 20.931 26.526 H 0.0 **** 0.0
30388 H 34.774 20.905 28.283 H 0.0 **** 0.0
30389 H 36.092 21.36 27.177 H 0.0 **** 0.0
30390 H 35.528 19.673 27.242 H 0.0 **** 0.0
30391 C 54.852 29.085 93.94 C 0.0 **** 0.0
30392 H 54.955 28.975 92.86 H 0.0 **** 0.0
30393 H 54.474 30.081 94.169 H 0.0 **** 0.0
30394 H 55.825 28.947 94.413 H 0.0 **** 0.0
30395 H 54.156 28.335 94.317 H 0.0 **** 0.0
30396 C 84.031 4.51 83.401 C 0.0 **** 0.0
30397 H 84.836 3.994 82.878 H 0.0 **** 0.0
30398 H 83.101 4.39 82.845 H 0.0 **** 0.0
30399 H 84.272 5.57 83.481 H 0.0 **** 0.0
30400 H 83.916 4.087 84.399 H 0.0 **** 0.0
30401 C 66.271 96.461 29.506 C 0.0 **** 0.0
30402 H 65.248 96.31 29.848 H 0.0 **** 0.0
30403 H 66.454 97.527 29.367 H 0.0 **** 0.0
30404 H 66.418 95.94 28.559 H 0.0 **** 0.0
30405 H 66.964 96.066 30.248 H 0.0 **** 0.0
30406 C 59.511 64.211 35.041 C 0.0 **** 0.0
30407 H 58.927 64.033 34.138 H 0.0 **** 0.0
30408 H 59.068 63.663 35.873 H 0.0 **** 0.0
30409 H 59.514 65.277 35.267 H 0.0 **** 0.0
30410 H 60.535 63.869 34.885 H 0.0 **** 0.0
30411 C 64.525 3.023 2.087 C 0.0 **** 0.0
30412 H 64.555 2.475 1.146 H 0.0 **** 0.0
30413 H 64.724 2.338 2.912 H 0.0 **** 0.0
30414 H 63.539 3.47 2.215 H 0.0 **** 0.0
30415 H 65.281 3.808 2.075 H 0.0 **** 0.0
30416 C 61.279 45.154 11.858 C 0.0 **** 0.0
30417 H 60.674 45.974 11.473 H 0.0 **** 0.0
30418 H 62.292 45.234 11.463 H 0.0 **** 0.0
30419 H 60.842 44.204 11.548 H 0.0 **** 0.0
30420 H 61.308 45.203 12.946 H 0.0 **** 0.0
30421 C 29.668 67.793 31.814 C 0.0 **** 0.0
30422 H 28.989 68.026 32.635 H 0.0 **** 0.0
30423 H 29.622 68.586 31.068 H 0.0 **** 0.0
30424 H 29.376 66.847 31.359 H 0.0 **** 0.0
30425 H 30.686 67.713 32.197 H 0.0 **** 0.0
30426 C 8.786 4.455 82.572 C 0.0 **** 0.0
30427 H 8.477 4.111 81.585 H 0.0 **** 0.0
30428 H 7.968 4.311 83.278 H 0.0 **** 0.0
30429 H 9.043 5.513 82.524 H 0.0 **** 0.0
30430 H 9.655 3.885 82.9 H 0.0 **** 0.0
30431 C 10.354 62.286 77.908 C 0.0 **** 0.0
30432 H 10.369 62.298 78.998 H 0.0 **** 0.0
30433 H 11.32 61.947 77.535 H 0.0 **** 0.0
30434 H 10.153 63.291 77.537 H 0.0 **** 0.0
30435 H 9.572 61.609 77.563 H 0.0 **** 0.0
30436 C 41.616 3.607 4.111 C 0.0 **** 0.0
30437 H 40.575 3.882 4.282 H 0.0 **** 0.0
30438 H 42.218 3.919 4.965 H 0.0 **** 0.0
30439 H 41.979 4.1 3.21 H 0.0 **** 0.0
30440 H 41.691 2.526 3.99 H 0.0 **** 0.0
30441 C 97.558 63.145 92.694 C 0.0 **** 0.0
30442 H 97.785 63.322 93.745 H 0.0 **** 0.0
30443 H 97.723 64.062 92.128 H 0.0 **** 0.0
30444 H 96.516 62.839 92.594 H 0.0 **** 0.0
30445 H 98.206 62.358 92.31 H 0.0 **** 0.0
30446 C 5.627 67.474 59.163 C 0.0 **** 0.0
30447 H 5.621 67.453 58.073 H 0.0 **** 0.0
30448 H 5.295 68.453 59.509 H 0.0 **** 0.0
30449 H 6.639 67.285 59.523 H 0.0 **** 0.0
30450 H 4.956 66.706 59.545 H 0.0 **** 0.0
30451 C 82.049 92.046 89.544 C 0.0 **** 0.0
30452 H 80.968 91.968 89.428 H 0.0 **** 0.0
30453 H 82.393 91.293 90.254 H 0.0 **** 0.0
30454 H 82.304 93.039 89.913 H 0.0 **** 0.0
30455 H 82.53 91.882 88.579 H 0.0 **** 0.0
30456 C 26.423 38.234 78.864 C 0.0 **** 0.0
30457 H 26.734 38.972 78.125 H 0.0 **** 0.0
30458 H 25.46 38.525 79.284 H 0.0 **** 0.0
30459 H 27.166 38.181 79.66 H 0.0 **** 0.0
30460 H 26.331 37.259 78.387 H 0.0 **** 0.0
30461 C 38.993 35.307 10.912 C 0.0 **** 0.0
30462 H 38.877 34.363 10.38 H 0.0 **** 0.0
30463 H 38.023 35.635 11.284 H 0.0 **** 0.0
30464 H 39.396 36.059 10.233 H 0.0 **** 0.0
30465 H 39.677 35.17 11.75 H 0.0 **** 0.0
30466 C 82.424 79.028 10.1 C 0.0 **** 0.0
30467 H 82.591 78.029 10.502 H 0.0 **** 0.0
30468 H 83.188 79.252 9.355 H 0.0 **** 0.0
30469 H 82.478 79.758 10.907 H 0.0 **** 0.0
30470 H 81.439 79.072 9.635 H 0.0 **** 0.0
30471 C 45.07 91.23 72.985 C 0.0 **** 0.0
30472 H 44.226 91.526 72.361 H 0.0 **** 0.0
30473 H 45.221 91.974 73.767 H 0.0 **** 0.0
30474 H 45.968 91.16 72.371 H 0.0 **** 0.0
30475 H 44.864 90.261 73.439 H 0.0 **** 0.0
30476 C 60.147 97.974 73.148 C 0.0 **** 0.0
30477 H 59.502 97.337 73.754 H 0.0 **** 0.0
30478 H 59.747 98.037 72.136 H 0.0 **** 0.0
30479 H 61.15 97.55 73.118 H 0.0 **** 0.0
30480 H 60.186 98.971 73.587 H 0.0 **** 0.0
30481 C 55.36 89.735 16.029 C 0.0 **** 0.0
30482 H 55.367 89.731 14.939 H 0.0 **** 0.0
30483 H 54.361 89.988 16.384 H 0.0 **** 0.0
30484 H 56.074 90.473 16.394 H 0.0 **** 0.0
30485 H 55.638 88.747 16.397 H 0.0 **** 0.0
30486 C 40.79 90.038 93.597 C 0.0 **** 0.0
30487 H 40.933 91.075 93.899 H 0.0 **** 0.0
30488 H 39.896 89.64 94.077 H 0.0 **** 0.0
30489 H 41.657 89.449 93.897 H 0.0 **** 0.0
30490 H 40.674 89.988 92.514 H 0.0 **** 0.0
30491 C 40.957 55.128 63.416 C 0.0 **** 0.0
30492 H 41.084 55.625 64.378 H 0.0 **** 0.0
30493 H 40.015 55.444 62.966 H 0.0 **** 0.0
30494 H 40.945 54.048 63.564 H 0.0 **** 0.0
30495 H 41.783 55.396 62.757 H 0.0 **** 0.0
30496 C 8.441 76.09 58.606 C 0.0 **** 0.0
30497 H 9.479 76.008 58.283 H 0.0 **** 0.0
30498 H 8.221 77.127 58.859 H 0.0 **** 0.0
30499 H 8.283 75.46 59.481 H 0.0 **** 0.0
30500 H 7.784 75.765 57.8 H 0.0 **** 0.0
30501 C 16.177 64.869 41.586 C 0.0 **** 0.0
30502 H 17.026 64.519 42.173 H 0.0 **** 0.0
30503 H 16.368 64.688 40.528 H 0.0 **** 0.0
30504 H 16.036 65.937 41.753 H 0.0 **** 0.0
30505 H 15.279 64.331 41.89 H 0.0 **** 0.0
30506 C 24.941 18.831 38.572 C 0.0 **** 0.0
30507 H 24.652 18.8 39.623 H 0.0 **** 0.0
30508 H 24.158 19.321 37.994 H 0.0 **** 0.0
30509 H 25.082 17.814 38.205 H 0.0 **** 0.0
30510 H 25.873 19.387 38.469 H 0.0 **** 0.0
30511 C 97.882 76.476 24.541 C 0.0 **** 0.0
30512 H 97.926 76.438 23.453 H 0.0 **** 0.0
30513 H 98.864 76.243 24.952 H 0.0 **** 0.0
30514 H 97.155 75.748 24.901 H 0.0 **** 0.0
30515 H 97.583 77.475 24.857 H 0.0 **** 0.0
30516 C 97.965 88.275 73.144 C 0.0 **** 0.0
30517 H 99.053 88.209 73.155 H 0.0 **** 0.0
30518 H 97.61 88.257 72.114 H 0.0 **** 0.0
30519 H 97.653 89.204 73.621 H 0.0 **** 0.0
30520 H 97.545 87.429 73.688 H 0.0 **** 0.0
30521 C 72.287 93.748 75.069 C 0.0 **** 0.0
30522 H 72.964 93.066 74.555 H 0.0 **** 0.0
30523 H 71.5 94.064 74.383 H 0.0 **** 0.0
30524 H 72.841 94.62 75.413 H 0.0 **** 0.0
30525 H 71.841 93.24 75.924 H 0.0 **** 0.0
30526 C 28.755 50.606 35.616 C 0.0 **** 0.0
30527 H 28.244 51.552 35.44 H 0.0 **** 0.0
30528 H 28.613 50.303 36.654 H 0.0 **** 0.0
30529 H 29.82 50.726 35.415 H 0.0 **** 0.0
30530 H 28.345 49.843 34.955 H 0.0 **** 0.0
30531 C 92.851 76.992 81.336 C 0.0 **** 0.0
30532 H 92.77 77.302 80.294 H 0.0 **** 0.0
30533 H 92.624 75.929 81.417 H 0.0 **** 0.0
30534 H 92.146 77.562 81.941 H 0.0 **** 0.0
30535 H 93.865 77.175 81.691 H 0.0 **** 0.0
30536 C 70.337 64.022 48.769 C 0.0 **** 0.0
30537 H 69.265 63.829 48.821 H 0.0 **** 0.0
30538 H 70.758 63.507 47.905 H 0.0 **** 0.0
30539 H 70.815 63.658 49.678 H 0.0 **** 0.0
30540 H 70.508 65.094 48.673 H 0.0 **** 0.0
30541 C 72.453 30.297 57.612 C 0.0 **** 0.0
30542 H 72.378 30.344 58.698 H 0.0 **** 0.0
30543 H 72.593 31.302 57.214 H 0.0 **** 0.0
30544 H 71.538 29.868 57.203 H 0.0 **** 0.0
30545 H 73.302 29.674 57.334 H 0.0 **** 0.0
30546 C 12.255 29.385 38.522 C 0.0 **** 0.0
30547 H 11.458 28.687 38.263 H 0.0 **** 0.0
30548 H 13.196 29.033 38.1 H 0.0 **** 0.0
30549 H 12.343 29.45 39.606 H 0.0 **** 0.0
30550 H 12.02 30.37 38.117 H 0.0 **** 0.0
30551 C 81.847 61.57 13.382 C 0.0 **** 0.0
30552 H 82.709 61.008 13.742 H 0.0 **** 0.0
30553 H 81.798 62.529 13.898 H 0.0 **** 0.0
30554 H 80.937 61.004 13.579 H 0.0 **** 0.0
30555 H 81.945 61.739 12.31 H 0.0 **** 0.0
30556 C 66.694 17.321 58.342 C 0.0 **** 0.0
30557 H 67.009 17.663 59.328 H 0.0 **** 0.0
30558 H 67.224 16.403 58.09 H 0.0 **** 0.0
30559 H 66.921 18.088 57.602 H 0.0 **** 0.0
30560 H 65.62 17.131 58.35 H 0.0 **** 0.0
30561 C 64.38 8.608 80.222 C 0.0 **** 0.0
30562 H 64.236 8.546 81.3 H 0.0 **** 0.0
30563 H 65.267 8.04 79.941 H 0.0 **** 0.0
30564 H 64.51 9.651 79.932 H 0.0 **** 0.0
30565 H 63.508 8.196 79.715 H 0.0 **** 0.0
30566 C 79.689 30.352 83.41 C 0.0 **** 0.0
30567 H 79.604 30.641 82.363 H 0.0 **** 0.0
30568 H 80.73 30.125 83.641 H 0.0 **** 0.0
30569 H 79.075 29.471 83.595 H 0.0 **** 0.0
30570 H 79.347 31.172 84.042 H 0.0 **** 0.0
30571 C 80.358 95.07 56.752 C 0.0 **** 0.0
30572 H 80.327 96.146 56.583 H 0.0 **** 0.0
30573 H 80.73 94.87 57.757 H 0.0 **** 0.0
30574 H 81.021 94.607 56.021 H 0.0 **** 0.0
30575 H 79.355 94.657 56.646 H 0.0 **** 0.0
30576 C 17.604 60.661 63.7 C 0.0 **** 0.0
30577 H 16.56 60.635 63.386 H 0.0 **** 0.0
30578 H 18.051 59.677 63.557 H 0.0 **** 0.0
30579 H 17.66 60.937 64.753 H 0.0 **** 0.0
30580 H 18.144 61.395 63.102 H 0.0 **** 0.0
30581 C 38.964 52.668 69.468 C 0.0 **** 0.0
30582 H 38.66 52.723 70.514 H 0.0 **** 0.0
30583 H 38.73 51.679 69.074 H 0.0 **** 0.0
30584 H 40.037 52.845 69.393 H 0.0 **** 0.0
30585 H 38.43 53.425 68.894 H 0.0 **** 0.0
30586 C 96.176 58.868 35.798 C 0.0 **** 0.0
30587 H 96.758 57.958 35.946 H 0.0 **** 0.0
30588 H 95.304 58.852 36.452 H 0.0 **** 0.0
30589 H 95.851 58.926 34.76 H 0.0 **** 0.0
30590 H 96.792 59.736 36.035 H 0.0 **** 0.0
30591 C 30.6 67.036 55.034 C 0.0 **** 0.0
30592 H 29.748 67.157 55.702 H 0.0 **** 0.0
30593 H 31.046 68.011 54.835 H 0.0 **** 0.0
30594 H 30.266 66.591 54.096 H 0.0 **** 0.0
30595 H 31.34 66.387 55.501 H 0.0 **** 0.0
30596 C 68.571 79.626 81.751 C 0.0 **** 0.0
30597 H 69.227 79.702 82.618 H 0.0 **** 0.0
30598 H 68.345 80.625 81.378 H 0.0 **** 0.0
30599 H 67.646 79.127 82.039 H 0.0 **** 0.0
30600 H 69.067 79.05 80.97 H 0.0 **** 0.0
30601 C 24.372 88.4 83.64 C 0.0 **** 0.0
30602 H 23.313 88.486 83.883 H 0.0 **** 0.0
30603 H 24.555 87.448 83.142 H 0.0 **** 0.0
30604 H 24.96 88.45 84.557 H 0.0 **** 0.0
30605 H 24.661 89.217 82.979 H 0.0 **** 0.0
30606 C 89.591 15.4 7.203 C 0.0 **** 0.0
30607 H 88.906 14.573 7.39 H 0.0 **** 0.0
30608 H 89.912 15.377 6.162 H 0.0 **** 0.0
30609 H 90.459 15.307 7.855 H 0.0 **** 0.0
30610 H 89.084 16.344 7.406 H 0.0 **** 0.0
30611 C 61.646 16.997 11.156 C 0.0 **** 0.0
30612 H 61.289 17.438 10.226 H 0.0 **** 0.0
30613 H 62.704 17.226 11.284 H 0.0 **** 0.0
30614 H 61.51 15.916 11.121 H 0.0 **** 0.0
30615 H 61.081 17.407 11.993 H 0.0 **** 0.0
30616 C 34.739 1.788 9.386 C 0.0 **** 0.0
30617 H 34.034 2.569 9.101 H 0.0 **** 0.0
30618 H 35.35 2.136 10.218 H 0.0 **** 0.0
30619 H 35.38 1.55 8.537 H 0.0 **** 0.0
30620 H 34.189 0.896 9.686 H 0.0 **** 0.0
30621 C 85.293 90.732 81.234 C 0.0 **** 0.0
30622 H 85.866 91.509 80.73 H 0.0 **** 0.0
30623 H 85.878 90.325 82.059 H 0.0 **** 0.0
30624 H 85.06 89.936 80.526 H 0.0 **** 0.0
30625 H 84.366 91.156 81.62 H 0.0 **** 0.0
30626 C 84.67 46.999 23.556 C 0.0 **** 0.0
30627 H 84.627 47.197 22.485 H 0.0 **** 0.0
30628 H 84.146 46.068 23.775 H 0.0 **** 0.0
30629 H 84.196 47.819 24.096 H 0.0 **** 0.0
30630 H 85.711 46.912 23.867 H 0.0 **** 0.0
30631 C 79.714 15.964 57.837 C 0.0 **** 0.0
30632 H 79.26 15.723 56.875 H 0.0 **** 0.0
30633 H 79.953 15.041 58.366 H 0.0 **** 0.0
30634 H 79.016 16.553 58.431 H 0.0 **** 0.0
30635 H 80.627 16.537 57.674 H 0.0 **** 0.0
30636 C 26.627 31.494 2.716 C 0.0 **** 0.0
30637 H 27.337 30.748 3.073 H 0.0 **** 0.0
30638 H 25.611 31.126 2.862 H 0.0 **** 0.0
30639 H 26.798 31.678 1.655 H 0.0 **** 0.0
30640 H 26.763 32.421 3.272 H 0.0 **** 0.0
30641 C 12.483 44.08 97.166 C 0.0 **** 0.0
30642 H 11.748 44.817 96.84 H 0.0 **** 0.0
30643 H 12.223 43.104 96.757 H 0.0 **** 0.0
30644 H 12.488 44.029 98.254 H 0.0 **** 0.0
30645 H 13.471 44.372 96.811 H 0.0 **** 0.0
30646 C 73.595 30.21 5.339 C 0.0 **** 0.0
30647 H 72.944 30.475 4.506 H 0.0 **** 0.0
30648 H 73.029 30.25 6.27 H 0.0 **** 0.0
30649 H 74.426 30.913 5.388 H 0.0 **** 0.0
30650 H 73.981 29.201 5.191 H 0.0 **** 0.0
30651 C 29.347 87.61 35.447 C 0.0 **** 0.0
30652 H 29.478 86.566 35.163 H 0.0 **** 0.0
30653 H 29.193 87.678 36.524 H 0.0 **** 0.0
30654 H 28.481 88.021 34.929 H 0.0 **** 0.0
30655 H 30.238 88.175 35.17 H 0.0 **** 0.0
30656 C 7.555 8.435 28.844 C 0.0 **** 0.0
30657 H 7.6 8.387 29.932 H 0.0 **** 0.0
30658 H 7.129 7.509 28.457 H 0.0 **** 0.0
30659 H 8.561 8.567 28.445 H 0.0 **** 0.0
30660 H 6.931 9.276 28.543 H 0.0 **** 0.0
30661 C 70.02 72.759 65.453 C 0.0 **** 0.0
30662 H 69.939 73.158 64.442 H 0.0 **** 0.0
30663 H 70.452 73.517 66.108 H 0.0 **** 0.0
30664 H 70.659 71.877 65.446 H 0.0 **** 0.0
30665 H 69.029 72.487 65.817 H 0.0 **** 0.0
30666 C 81.947 53.46 33.017 C 0.0 **** 0.0
30667 H 81.494 53.616 32.038 H 0.0 **** 0.0
30668 H 81.245 52.931 33.662 H 0.0 **** 0.0
30669 H 82.194 54.424 33.461 H 0.0 **** 0.0
30670 H 82.855 52.867 32.906 H 0.0 **** 0.0
30671 C 78.313 89.867 52.38 C 0.0 **** 0.0
30672 H 78.027 89.66 53.411 H 0.0 **** 0.0
30673 H 79.078 89.156 52.066 H 0.0 **** 0.0
30674 H 78.708 90.881 52.309 H 0.0 **** 0.0
30675 H 77.44 89.771 51.735 H 0.0 **** 0.0
30676 C 15.1 36.857 83.476 C 0.0 **** 0.0
30677 H 15.223 36.059 84.209 H 0.0 **** 0.0
30678 H 15.938 36.841 82.779 H 0.0 **** 0.0
30679 H 15.072 37.818 83.988 H 0.0 **** 0.0
30680 H 14.169 36.708 82.929 H 0.0 **** 0.0
30681 C 55.919 66.62 69.905 C 0.0 **** 0.0
30682 H 55.032 67.003 69.4 H 0.0 **** 0.0
30683 H 56.806 66.875 69.324 H 0.0 **** 0.0
30684 H 55.844 65.536 69.998 H 0.0 **** 0.0
30685 H 55.993 67.066 70.897 H 0.0 **** 0.0
30686 C 34.767 63.07 25.897 C 0.0 **** 0.0
30687 H 34.789 62.72 24.865 H 0.0 **** 0.0
30688 H 34.51 64.13 25.916 H 0.0 **** 0.0
30689 H 35.748 62.926 26.35 H 0.0 **** 0.0
30690 H 34.022 62.505 26.456 H 0.0 **** 0.0
30691 C 56.229 28.533 35.879 C 0.0 **** 0.0
30692 H 56.177 28.546 34.79 H 0.0 **** 0.0
30693 H 57.223 28.847 36.198 H 0.0 **** 0.0
30694 H 56.034 27.523 36.239 H 0.0 **** 0.0
30695 H 55.483 29.215 36.286 H 0.0 **** 0.0
30696 C 5.572 38.496 7.847 C 0.0 **** 0.0
30697 H 4.648 38.388 7.278 H 0.0 **** 0.0
30698 H 6.055 39.436 7.581 H 0.0 **** 0.0
30699 H 6.239 37.666 7.617 H 0.0 **** 0.0
30700 H 5.343 38.493 8.913 H 0.0 **** 0.0
30701 C 23.844 24.822 82.147 C 0.0 **** 0.0
30702 H 23.468 25.254 83.075 H 0.0 **** 0.0
30703 H 24.05 23.763 82.298 H 0.0 **** 0.0
30704 H 24.761 25.334 81.855 H 0.0 **** 0.0
30705 H 23.096 24.94 81.363 H 0.0 **** 0.0
30706 C 67.481 18.541 49.248 C 0.0 **** 0.0
30707 H 68.518 18.297 49.019 H 0.0 **** 0.0
30708 H 67.025 19.029 48.386 H 0.0 **** 0.0
30709 H 67.447 19.213 50.106 H 0.0 **** 0.0
30710 H 66.935 17.627 49.48 H 0.0 **** 0.0
30711 C 34.775 8.713 80.749 C 0.0 **** 0.0
30712 H 34.81 8.747 79.66 H 0.0 **** 0.0
30713 H 33.945 8.079 81.065 H 0.0 **** 0.0
30714 H 34.632 9.72 81.14 H 0.0 **** 0.0
30715 H 35.71 8.304 81.13 H 0.0 **** 0.0
30716 C 7.207 89.335 55.321 C 0.0 **** 0.0
30717 H 7.096 88.787 54.386 H 0.0 **** 0.0
30718 H 8.249 89.63 55.447 H 0.0 **** 0.0
30719 H 6.905 88.699 56.153 H 0.0 **** 0.0
30720 H 6.577 90.225 55.297 H 0.0 **** 0.0
30721 C 13.986 51.35 57.561 C 0.0 **** 0.0
30722 H 14.452 51.365 56.575 H 0.0 **** 0.0
30723 H 14.76 51.37 58.328 H 0.0 **** 0.0
30724 H 13.392 50.442 57.667 H 0.0 **** 0.0
30725 H 13.341 52.222 57.671 H 0.0 **** 0.0
30726 C 27.96 63.404 38.027 C 0.0 **** 0.0
30727 H 27.022 62.967 37.686 H 0.0 **** 0.0
30728 H 27.76 64.357 38.519 H 0.0 **** 0.0
30729 H 28.617 63.567 37.173 H 0.0 **** 0.0
30730 H 28.442 62.726 38.731 H 0.0 **** 0.0
30731 C 36.162 30.816 71.406 C 0.0 **** 0.0
30732 H 35.96 31.149 72.425 H 0.0 **** 0.0
30733 H 37.147 31.167 71.098 H 0.0 **** 0.0
30734 H 35.404 31.221 70.735 H 0.0 **** 0.0
30735 H 36.136 29.727 71.369 H 0.0 **** 0.0
30736 C 34.601 86.579 14.942 C 0.0 **** 0.0
30737 H 34.224 86.941 15.898 H 0.0 **** 0.0
30738 H 33.932 85.81 14.554 H 0.0 **** 0.0
30739 H 35.597 86.159 15.08 H 0.0 **** 0.0
30740 H 34.651 87.408 14.235 H 0.0 **** 0.0
30741 C 24.868 26.803 47.492 C 0.0 **** 0.0
30742 H 24.61 27.687 46.908 H 0.0 **** 0.0
30743 H 25.953 26.71 47.549 H 0.0 **** 0.0
30744 H 24.452 25.917 47.012 H 0.0 **** 0.0
30745 H 24.457 26.899 48.497 H 0.0 **** 0.0
30746 C 44.647 58.177 21.094 C 0.0 **** 0.0
30747 H 45.1 57.191 21.206 H 0.0 **** 0.0
30748 H 45.403 58.944 21.262 H 0.0 **** 0.0
30749 H 43.844 58.292 21.822 H 0.0 **** 0.0
30750 H 44.243 58.278 20.087 H 0.0 **** 0.0
30751 C 41.826 4.139 94.878 C 0.0 **** 0.0
30752 H 41.482 3.599 93.996 H 0.0 **** 0.0
30753 H 41.015 4.757 95.265 H 0.0 **** 0.0
30754 H 42.67 4.774 94.609 H 0.0 **** 0.0
30755 H 42.137 3.427 95.642 H 0.0 **** 0.0
30756 C 91.089 63.029 67.581 C 0.0 **** 0.0
30757 H 90.613 63.383 68.496 H 0.0 **** 0.0
30758 H 90.69 62.05 67.319 H 0.0 **** 0.0
30759 H 92.165 62.953 67.739 H 0.0 **** 0.0
30760 H 90.889 63.732 66.773 H 0.0 **** 0.0
30761 C 94.855 92.787 18.672 C 0.0 **** 0.0
30762 H 95.741 92.573 18.076 H 0.0 **** 0.0
30763 H 94.863 92.168 19.57 H 0.0 **** 0.0
30764 H 93.962 92.566 18.087 H 0.0 **** 0.0
30765 H 94.852 93.839 18.956 H 0.0 **** 0.0
30766 C 75.933 44.5 55.636 C 0.0 **** 0.0
30767 H 75.884 44.795 56.684 H 0.0 **** 0.0
30768 H 75.101 43.834 55.407 H 0.0 **** 0.0
30769 H 76.875 43.984 55.448 H 0.0 **** 0.0
30770 H 75.873 45.388 55.006 H 0.0 **** 0.0
30771 C 39.603 63.64 36.775 C 0.0 **** 0.0
30772 H 39.617 63.817 37.851 H 0.0 **** 0.0
30773 H 40.584 63.866 36.358 H 0.0 **** 0.0
30774 H 38.854 64.282 36.311 H 0.0 **** 0.0
30775 H 39.357 62.596 36.582 H 0.0 **** 0.0
30776 C 63.363 7.542 12.536 C 0.0 **** 0.0
30777 H 63.451 7.058 13.508 H 0.0 **** 0.0
30778 H 63.842 6.921 11.777 H 0.0 **** 0.0
30779 H 63.851 8.516 12.569 H 0.0 **** 0.0
30780 H 62.31 7.672 12.288 H 0.0 **** 0.0
30781 C 32.976 55.425 71.677 C 0.0 **** 0.0
30782 H 33.345 54.417 71.869 H 0.0 **** 0.0
30783 H 33.717 56.152 72.009 H 0.0 **** 0.0
30784 H 32.045 55.58 72.221 H 0.0 **** 0.0
30785 H 32.798 55.549 70.609 H 0.0 **** 0.0
30786 C 43.265 25.708 54.829 C 0.0 **** 0.0
30787 H 43.568 26.216 53.914 H 0.0 **** 0.0
30788 H 43.435 26.365 55.682 H 0.0 **** 0.0
30789 H 43.85 24.797 54.95 H 0.0 **** 0.0
30790 H 42.206 25.455 54.77 H 0.0 **** 0.0
30791 C 24.295 29.58 1.265 C 0.0 **** 0.0
30792 H 24.214 29.394 2.336 H 0.0 **** 0.0
30793 H 25.346 29.692 0.996 H 0.0 **** 0.0
30794 H 23.756 30.492 1.013 H 0.0 **** 0.0
30795 H 23.867 28.741 0.717 H 0.0 **** 0.0
30796 C 66.49 27.301 10.497 C 0.0 **** 0.0
30797 H 65.97 26.663 9.782 H 0.0 **** 0.0
30798 H 66.682 26.739 11.411 H 0.0 **** 0.0
30799 H 65.872 28.169 10.726 H 0.0 **** 0.0
30800 H 67.436 27.631 10.067 H 0.0 **** 0.0
30801 C 3.172 9.031 49.45 C 0.0 **** 0.0
30802 H 3.06 10.104 49.606 H 0.0 **** 0.0
30803 H 3.169 8.817 48.381 H 0.0 **** 0.0
30804 H 2.345 8.506 49.929 H 0.0 **** 0.0
30805 H 4.114 8.698 49.885 H 0.0 **** 0.0
30806 C 26.008 24.866 8.211 C 0.0 **** 0.0
30807 H 26.175 25.554 9.039 H 0.0 **** 0.0
30808 H 26.446 25.28 7.302 H 0.0 **** 0.0
30809 H 24.937 24.726 8.066 H 0.0 **** 0.0
30810 H 26.474 23.907 8.435 H 0.0 **** 0.0
30811 C 42.468 51.816 75.846 C 0.0 **** 0.0
30812 H 42.261 52.029 76.895 H 0.0 **** 0.0
30813 H 43.15 52.57 75.452 H 0.0 **** 0.0
30814 H 41.537 51.837 75.281 H 0.0 **** 0.0
30815 H 42.925 50.831 75.759 H 0.0 **** 0.0
30816 C 4.091 65.413 75.982 C 0.0 **** 0.0
30817 H 3.96 65.182 77.04 H 0.0 **** 0.0
30818 H 3.182 65.874 75.596 H 0.0 **** 0.0
30819 H 4.294 64.493 75.433 H 0.0 **** 0.0
30820 H 4.928 66.1 75.861 H 0.0 **** 0.0
30821 C 89.052 49.198 43.212 C 0.0 **** 0.0
30822 H 88.925 50.167 43.695 H 0.0 **** 0.0
30823 H 88.429 49.153 42.318 H 0.0 **** 0.0
30824 H 88.756 48.407 43.901 H 0.0 **** 0.0
30825 H 90.097 49.065 42.934 H 0.0 **** 0.0
30826 C 1.728 89.419 92.842 C 0.0 **** 0.0
30827 H 0.978 88.991 93.507 H 0.0 **** 0.0
30828 H 2.649 88.839 92.913 H 0.0 **** 0.0
30829 H 1.925 90.451 93.133 H 0.0 **** 0.0
30830 H 1.36 89.394 91.816 H 0.0 **** 0.0
30831 C 46.867 44.066 70.665 C 0.0 **** 0.0
30832 H 46.115 43.753 71.39 H 0.0 **** 0.0
30833 H 47.434 44.905 71.068 H 0.0 **** 0.0
30834 H 46.375 44.37 69.741 H 0.0 **** 0.0
30835 H 47.542 43.235 70.46 H 0.0 **** 0.0
30836 C 14.268 22.61 42.392 C 0.0 **** 0.0
30837 H 13.534 23.4 42.23 H 0.0 **** 0.0
30838 H 14.945 22.564 41.538 H 0.0 **** 0.0
30839 H 13.755 21.655 42.502 H 0.0 **** 0.0
30840 H 14.837 22.824 43.296 H 0.0 **** 0.0
30841 C 73.969 16.338 55.302 C 0.0 **** 0.0
30842 H 73.244 17.075 55.648 H 0.0 **** 0.0
30843 H 74.549 16.758 54.48 H 0.0 **** 0.0
30844 H 73.444 15.447 54.958 H 0.0 **** 0.0
30845 H 74.637 16.073 56.121 H 0.0 **** 0.0
30846 C 29.144 2.349 60.652 C 0.0 **** 0.0
30847 H 28.814 2.105 61.662 H 0.0 **** 0.0
30848 H 29.239 3.431 60.553 H 0.0 **** 0.0
30849 H 28.413 1.981 59.933 H 0.0 **** 0.0
30850 H 30.109 1.88 60.462 H 0.0 **** 0.0
30851 C 77.752 31.739 59.865 C 0.0 **** 0.0
30852 H 78.677 32.25 59.598 H 0.0 **** 0.0
30853 H 76.903 32.29 59.461 H 0.0 **** 0.0
30854 H 77.667 31.685 60.95 H 0.0 **** 0.0
30855 H 77.762 30.73 59.451 H 0.0 **** 0.0
30856 C 90.453 14.127 47.239 C 0.0 **** 0.0
30857 H 90.973 13.537 46.484 H 0.0 **** 0.0
30858 H 90.295 13.52 48.13 H 0.0 **** 0.0
30859 H 89.49 14.453 46.845 H 0.0 **** 0.0
30860 H 91.054 15.0 47.495 H 0.0 **** 0.0
30861 C 23.422 2.515 11.174 C 0.0 **** 0.0
30862 H 22.963 2.923 10.273 H 0.0 **** 0.0
30863 H 22.7 2.536 11.991 H 0.0 **** 0.0
30864 H 24.292 3.114 11.441 H 0.0 **** 0.0
30865 H 23.732 1.486 10.989 H 0.0 **** 0.0
30866 C 61.39 47.859 83.312 C 0.0 **** 0.0
30867 H 61.354 47.325 84.262 H 0.0 **** 0.0
30868 H 60.455 48.4 83.164 H 0.0 **** 0.0
30869 H 61.53 47.145 82.5 H 0.0 **** 0.0
30870 H 62.221 48.564 83.323 H 0.0 **** 0.0
30871 C 50.444 74.617 48.052 C 0.0 **** 0.0
30872 H 50.885 75.359 47.386 H 0.0 **** 0.0
30873 H 51.227 74.167 48.663 H 0.0 **** 0.0
30874 H 49.955 73.843 47.461 H 0.0 **** 0.0
30875 H 49.711 75.099 48.698 H 0.0 **** 0.0
30876 C 12.186 59.403 7.935 C 0.0 **** 0.0
30877 H 12.341 60.279 7.305 H 0.0 **** 0.0
30878 H 11.541 58.694 7.417 H 0.0 **** 0.0
30879 H 11.716 59.708 8.87 H 0.0 **** 0.0
30880 H 13.147 58.934 8.147 H 0.0 **** 0.0
30881 C 5.081 77.494 89.076 C 0.0 **** 0.0
30882 H 5.142 76.7 89.82 H 0.0 **** 0.0
30883 H 4.487 78.318 89.473 H 0.0 **** 0.0
30884 H 4.61 77.109 88.172 H 0.0 **** 0.0
30885 H 6.084 77.849 88.84 H 0.0 **** 0.0
30886 C 36.853 54.251 1.188 C 0.0 **** 0.0
30887 H 36.461 53.48 0.526 H 0.0 **** 0.0
30888 H 36.047 54.643 1.808 H 0.0 **** 0.0
30889 H 37.279 55.059 0.593 H 0.0 **** 0.0
30890 H 37.627 53.823 1.826 H 0.0 **** 0.0
30891 C 21.168 97.18 16.732 C 0.0 **** 0.0
30892 H 21.713 96.653 15.949 H 0.0 **** 0.0
30893 H 20.099 97.135 16.524 H 0.0 **** 0.0
30894 H 21.49 98.221 16.761 H 0.0 **** 0.0
30895 H 21.371 96.71 17.695 H 0.0 **** 0.0
30896 C 15.424 19.893 68.607 C 0.0 **** 0.0
30897 H 16.352 19.331 68.501 H 0.0 **** 0.0
30898 H 14.971 20.034 67.625 H 0.0 **** 0.0
30899 H 15.637 20.865 69.052 H 0.0 **** 0.0
30900 H 14.737 19.342 69.249 H 0.0 **** 0.0
30901 C 70.581 46.892 89.891 C 0.0 **** 0.0
30902 H 70.58 46.877 90.98 H 0.0 **** 0.0
30903 H 69.83 46.196 89.517 H 0.0 **** 0.0
30904 H 71.565 46.596 89.525 H 0.0 **** 0.0
30905 H 70.351 47.898 89.541 H 0.0 **** 0.0
30906 C 88.719 59.198 22.401 C 0.0 **** 0.0
30907 H 88.201 58.245 22.512 H 0.0 **** 0.0
30908 H 88.58 59.57 21.386 H 0.0 **** 0.0
30909 H 89.783 59.057 22.595 H 0.0 **** 0.0
30910 H 88.313 59.917 23.112 H 0.0 **** 0.0
30911 C 52.871 29.194 41.086 C 0.0 **** 0.0
30912 H 53.25 29.383 42.091 H 0.0 **** 0.0
30913 H 52.406 28.209 41.053 H 0.0 **** 0.0
30914 H 53.695 29.232 40.374 H 0.0 **** 0.0
30915 H 52.132 29.954 40.828 H 0.0 **** 0.0
30916 C 65.003 52.964 97.556 C 0.0 **** 0.0
30917 H 64.667 53.209 98.564 H 0.0 **** 0.0
30918 H 64.14 52.894 96.894 H 0.0 **** 0.0
30919 H 65.529 52.01 97.571 H 0.0 **** 0.0
30920 H 65.675 53.744 97.198 H 0.0 **** 0.0
30921 C 44.987 4.917 10.916 C 0.0 **** 0.0
30922 H 45.602 5.693 11.372 H 0.0 **** 0.0
30923 H 45.32 4.745 9.892 H 0.0 **** 0.0
30924 H 43.945 5.236 10.91 H 0.0 **** 0.0
30925 H 45.082 3.995 11.489 H 0.0 **** 0.0
30926 C 46.031 73.152 56.259 C 0.0 **** 0.0
30927 H 45.001 72.932 55.978 H 0.0 **** 0.0
30928 H 46.685 72.362 55.888 H 0.0 **** 0.0
30929 H 46.107 73.207 57.345 H 0.0 **** 0.0
30930 H 46.33 74.106 55.825 H 0.0 **** 0.0
30931 C 11.565 44.26 88.72 C 0.0 **** 0.0
30932 H 11.459 44.186 87.638 H 0.0 **** 0.0
30933 H 10.988 45.111 89.084 H 0.0 **** 0.0
30934 H 12.616 44.399 88.973 H 0.0 **** 0.0
30935 H 11.197 43.346 89.185 H 0.0 **** 0.0
30936 C 31.457 95.01 97.011 C 0.0 **** 0.0
30937 H 31.315 96.074 97.199 H 0.0 **** 0.0
30938 H 30.704 94.441 97.557 H 0.0 **** 0.0
30939 H 32.451 94.712 97.346 H 0.0 **** 0.0
30940 H 31.359 94.814 95.944 H 0.0 **** 0.0
30941 C 95.615 54.237 93.619 C 0.0 **** 0.0
30942 H 95.345 53.92 92.612 H 0.0 **** 0.0
30943 H 96.683 54.083 93.775 H 0.0 **** 0.0
30944 H 95.053 53.651 94.347 H 0.0 **** 0.0
30945 H 95.378 55.294 93.743 H 0.0 **** 0.0
30946 C 66.087 60.525 31.865 C 0.0 **** 0.0
30947 H 66.33 60.066 32.824 H 0.0 **** 0.0
30948 H 66.041 61.608 31.982 H 0.0 **** 0.0
30949 H 65.122 60.155 31.519 H 0.0 **** 0.0
30950 H 66.857 60.271 31.136 H 0.0 **** 0.0
30951 C 46.817 70.167 46.0 C 0.0 **** 0.0
30952 H 47.432 69.313 46.281 H 0.0 **** 0.0
30953 H 47.419 70.879 45.436 H 0.0 **** 0.0
30954 H 46.432 70.649 46.899 H 0.0 **** 0.0
30955 H 45.984 69.827 45.385 H 0.0 **** 0.0
30956 C 37.569 0.638 90.059 C 0.0 **** 0.0
30957 H 37.217 0.028 90.891 H 0.0 **** 0.0
30958 H 38.495 1.139 90.343 H 0.0 **** 0.0
30959 H 36.813 1.383 89.811 H 0.0 **** 0.0
30960 H 37.75 0.001 89.193 H 0.0 **** 0.0
30961 C 44.851 88.313 44.004 C 0.0 **** 0.0
30962 H 44.645 87.758 44.919 H 0.0 **** 0.0
30963 H 43.955 88.338 43.384 H 0.0 **** 0.0
30964 H 45.658 87.824 43.457 H 0.0 **** 0.0
30965 H 45.148 89.331 44.256 H 0.0 **** 0.0
30966 C 81.737 17.596 11.498 C 0.0 **** 0.0
30967 H 82.061 17.571 10.457 H 0.0 **** 0.0
30968 H 81.068 16.757 11.69 H 0.0 **** 0.0
30969 H 81.212 18.531 11.692 H 0.0 **** 0.0
30970 H 82.607 17.525 12.151 H 0.0 **** 0.0
30971 C 28.464 89.417 89.534 C 0.0 **** 0.0
30972 H 28.526 89.824 90.544 H 0.0 **** 0.0
30973 H 28.695 90.2 88.812 H 0.0 **** 0.0
30974 H 27.455 89.043 89.356 H 0.0 **** 0.0
30975 H 29.178 88.601 89.427 H 0.0 **** 0.0
30976 C 64.923 26.666 82.519 C 0.0 **** 0.0
30977 H 64.789 26.696 81.438 H 0.0 **** 0.0
30978 H 65.784 27.274 82.796 H 0.0 **** 0.0
30979 H 65.088 25.636 82.835 H 0.0 **** 0.0
30980 H 64.029 27.057 83.006 H 0.0 **** 0.0
30981 C 49.207 44.821 88.256 C 0.0 **** 0.0
30982 H 50.02 44.576 88.939 H 0.0 **** 0.0
30983 H 49.619 45.231 87.334 H 0.0 **** 0.0
30984 H 48.551 45.557 88.72 H 0.0 **** 0.0
30985 H 48.638 43.918 88.031 H 0.0 **** 0.0
30986 C 75.795 14.615 78.009 C 0.0 **** 0.0
30987 H 75.795 13.772 78.7 H 0.0 **** 0.0
30988 H 75.973 14.253 76.996 H 0.0 **** 0.0
30989 H 76.582 15.314 78.29 H 0.0 **** 0.0
30990 H 74.829 15.119 78.051 H 0.0 **** 0.0
30991 C 50.966 57.944 45.461 C 0.0 **** 0.0
30992 H 50.349 57.819 44.571 H 0.0 **** 0.0
30993 H 50.325 58.027 46.339 H 0.0 **** 0.0
30994 H 51.567 58.848 45.362 H 0.0 **** 0.0
30995 H 51.623 57.081 45.571 H 0.0 **** 0.0
30996 C 85.205 70.64 2.07 C 0.0 **** 0.0
30997 H 85.446 70.88 3.105 H 0.0 **** 0.0
30998 H 84.567 71.42 1.655 H 0.0 **** 0.0
30999 H 84.683 69.684 2.031 H 0.0 **** 0.0
31000 H 86.125 70.575 1.489 H 0.0 **** 0.0
31001 C 20.947 35.185 84.687 C 0.0 **** 0.0
31002 H 21.026 34.75 83.691 H 0.0 **** 0.0
31003 H 20.028 34.839 85.163 H 0.0 **** 0.0
31004 H 20.928 36.272 84.608 H 0.0 **** 0.0
31005 H 21.804 34.879 85.287 H 0.0 **** 0.0
31006 C 30.882 46.959 5.538 C 0.0 **** 0.0
31007 H 31.385 47.212 4.605 H 0.0 **** 0.0
31008 H 31.292 46.028 5.931 H 0.0 **** 0.0
31009 H 29.815 46.837 5.354 H 0.0 **** 0.0
31010 H 31.037 47.759 6.262 H 0.0 **** 0.0
31011 C 79.526 64.792 35.853 C 0.0 **** 0.0
31012 H 80.101 64.381 36.682 H 0.0 **** 0.0
31013 H 80.059 64.613 34.918 H 0.0 **** 0.0
31014 H 79.395 65.864 35.997 H 0.0 **** 0.0
31015 H 78.55 64.308 35.813 H 0.0 **** 0.0
31016 C 64.023 39.604 60.046 C 0.0 **** 0.0
31017 H 63.932 39.621 61.132 H 0.0 **** 0.0
31018 H 63.374 38.827 59.639 H 0.0 **** 0.0
31019 H 65.057 39.395 59.771 H 0.0 **** 0.0
31020 H 63.728 40.572 59.642 H 0.0 **** 0.0
31021 C 55.881 7.863 45.055 C 0.0 **** 0.0
31022 H 56.604 7.054 45.163 H 0.0 **** 0.0
31023 H 56.075 8.402 44.127 H 0.0 **** 0.0
31024 H 55.974 8.547 45.899 H 0.0 **** 0.0
31025 H 54.874 7.449 45.031 H 0.0 **** 0.0
31026 C 89.853 53.014 68.702 C 0.0 **** 0.0
31027 H 89.847 52.032 69.176 H 0.0 **** 0.0
31028 H 90.844 53.214 68.295 H 0.0 **** 0.0
31029 H 89.602 53.775 69.441 H 0.0 **** 0.0
31030 H 89.118 53.032 67.898 H 0.0 **** 0.0
31031 C 14.259 26.557 73.993 C 0.0 **** 0.0
31032 H 13.293 26.873 74.387 H 0.0 **** 0.0
31033 H 14.463 25.534 74.311 H 0.0 **** 0.0
31034 H 15.039 27.218 74.371 H 0.0 **** 0.0
31035 H 14.24 26.602 72.904 H 0.0 **** 0.0
31036 C 33.878 34.422 68.139 C 0.0 **** 0.0
31037 H 33.551 34.596 67.114 H 0.0 **** 0.0
31038 H 33.022 34.495 68.811 H 0.0 **** 0.0
31039 H 34.621 35.17 68.415 H 0.0 **** 0.0
31040 H 34.317 33.427 68.216 H 0.0 **** 0.0
31041 C 64.256 67.99 37.683 C 0.0 **** 0.0
31042 H 63.904 67.512 36.768 H 0.0 **** 0.0
31043 H 63.632 67.676 38.519 H 0.0 **** 0.0
31044 H 64.199 69.072 37.572 H 0.0 **** 0.0
31045 H 65.29 67.697 37.87 H 0.0 **** 0.0
31046 C 38.77 33.159 29.385 C 0.0 **** 0.0
31047 H 38.871 33.086 30.468 H 0.0 **** 0.0
31048 H 38.125 34.002 29.137 H 0.0 **** 0.0
31049 H 38.332 32.239 28.998 H 0.0 **** 0.0
31050 H 39.753 33.31 28.939 H 0.0 **** 0.0
31051 C 28.075 46.374 27.386 C 0.0 **** 0.0
31052 H 28.455 46.081 26.408 H 0.0 **** 0.0
31053 H 27.094 46.836 27.271 H 0.0 **** 0.0
31054 H 28.761 47.087 27.844 H 0.0 **** 0.0
31055 H 27.99 45.492 28.022 H 0.0 **** 0.0
31056 C 34.921 26.687 39.943 C 0.0 **** 0.0
31057 H 34.726 27.28 40.836 H 0.0 **** 0.0
31058 H 35.997 26.61 39.786 H 0.0 **** 0.0
31059 H 34.46 27.167 39.08 H 0.0 **** 0.0
31060 H 34.5 25.689 40.071 H 0.0 **** 0.0
31061 C 2.71 56.516 60.709 C 0.0 **** 0.0
31062 H 3.254 56.16 61.585 H 0.0 **** 0.0
31063 H 1.834 57.079 61.03 H 0.0 **** 0.0
31064 H 2.395 55.665 60.106 H 0.0 **** 0.0
31065 H 3.36 57.161 60.117 H 0.0 **** 0.0
31066 C 25.043 48.629 6.671 C 0.0 **** 0.0
31067 H 24.666 47.977 7.458 H 0.0 **** 0.0
31068 H 25.595 49.457 7.117 H 0.0 **** 0.0
31069 H 24.207 49.02 6.091 H 0.0 **** 0.0
31070 H 25.706 48.062 6.016 H 0.0 **** 0.0
31071 C 97.627 31.601 10.402 C 0.0 **** 0.0
31072 H 97.234 32.504 10.869 H 0.0 **** 0.0
31073 H 97.448 31.641 9.327 H 0.0 **** 0.0
31074 H 97.127 30.729 10.822 H 0.0 **** 0.0
31075 H 98.698 31.532 10.59 H 0.0 **** 0.0
31076 C 27.754 42.995 80.788 C 0.0 **** 0.0
31077 H 26.874 42.458 80.437 H 0.0 **** 0.0
31078 H 28.625 42.683 80.211 H 0.0 **** 0.0
31079 H 27.918 42.773 81.843 H 0.0 **** 0.0
31080 H 27.6 44.067 80.662 H 0.0 **** 0.0
31081 C 7.493 44.31 26.813 C 0.0 **** 0.0
31082 H 6.831 44.416 27.672 H 0.0 **** 0.0
31083 H 8.369 43.728 27.099 H 0.0 **** 0.0
31084 H 7.807 45.297 26.472 H 0.0 **** 0.0
31085 H 6.964 43.8 26.008 H 0.0 **** 0.0
31086 C 9.355 84.794 71.376 C 0.0 **** 0.0
31087 H 8.274 84.673 71.294 H 0.0 **** 0.0
31088 H 9.746 84.081 72.103 H 0.0 **** 0.0
31089 H 9.583 85.808 71.703 H 0.0 **** 0.0
31090 H 9.815 84.613 70.405 H 0.0 **** 0.0
31091 C 22.659 92.062 28.297 C 0.0 **** 0.0
31092 H 22.906 91.072 27.912 H 0.0 **** 0.0
31093 H 22.188 92.651 27.51 H 0.0 **** 0.0
31094 H 23.57 92.56 28.629 H 0.0 **** 0.0
31095 H 21.973 91.963 29.138 H 0.0 **** 0.0
31096 C 70.22 12.962 12.756 C 0.0 **** 0.0
31097 H 70.064 11.889 12.866 H 0.0 **** 0.0
31098 H 70.67 13.166 11.784 H 0.0 **** 0.0
31099 H 70.884 13.315 13.546 H 0.0 **** 0.0
31100 H 69.263 13.478 12.83 H 0.0 **** 0.0
31101 C 10.908 22.662 57.518 C 0.0 **** 0.0
31102 H 10.775 22.591 56.439 H 0.0 **** 0.0
31103 H 10.172 23.353 57.93 H 0.0 **** 0.0
31104 H 11.911 23.027 57.738 H 0.0 **** 0.0
31105 H 10.773 21.677 57.966 H 0.0 **** 0.0
31106 C 64.608 3.745 40.314 C 0.0 **** 0.0
31107 H 63.954 3.386 39.519 H 0.0 **** 0.0
31108 H 64.067 3.735 41.26 H 0.0 **** 0.0
31109 H 64.927 4.763 40.089 H 0.0 **** 0.0
31110 H 65.481 3.097 40.386 H 0.0 **** 0.0
31111 C 64.571 95.719 56.187 C 0.0 **** 0.0
31112 H 64.745 95.719 57.263 H 0.0 **** 0.0
31113 H 65.528 95.694 55.665 H 0.0 **** 0.0
31114 H 64.028 96.622 55.908 H 0.0 **** 0.0
31115 H 63.984 94.843 55.914 H 0.0 **** 0.0
31116 C 76.533 89.329 78.212 C 0.0 **** 0.0
31117 H 76.73 89.187 79.275 H 0.0 **** 0.0
31118 H 75.534 88.961 77.976 H 0.0 **** 0.0
31119 H 77.271 88.777 77.63 H 0.0 **** 0.0
31120 H 76.597 90.389 77.969 H 0.0 **** 0.0
31121 C 86.825 92.143 65.966 C 0.0 **** 0.0
31122 H 86.563 91.113 66.208 H 0.0 **** 0.0
31123 H 87.586 92.15 65.185 H 0.0 **** 0.0
31124 H 87.213 92.638 66.857 H 0.0 **** 0.0
31125 H 85.938 92.67 65.615 H 0.0 **** 0.0
31126 C 97.252 92.407 96.563 C 0.0 **** 0.0
31127 H 96.381 92.372 95.909 H 0.0 **** 0.0
31128 H 98.143 92.135 95.996 H 0.0 **** 0.0
31129 H 97.117 91.705 97.386 H 0.0 **** 0.0
31130 H 97.368 93.415 96.96 H 0.0 **** 0.0
31131 C 69.132 84.078 5.267 C 0.0 **** 0.0
31132 H 68.361 83.386 4.927 H 0.0 **** 0.0
31133 H 69.142 84.956 4.621 H 0.0 **** 0.0
31134 H 70.104 83.586 5.228 H 0.0 **** 0.0
31135 H 68.919 84.382 6.292 H 0.0 **** 0.0
31136 C 47.038 88.501 86.696 C 0.0 **** 0.0
31137 H 47.014 88.014 85.721 H 0.0 **** 0.0
31138 H 46.571 89.484 86.622 H 0.0 **** 0.0
31139 H 48.073 88.614 87.02 H 0.0 **** 0.0
31140 H 46.495 87.894 87.42 H 0.0 **** 0.0
31141 C 56.718 23.314 6.818 C 0.0 **** 0.0
31142 H 56.385 24.238 6.344 H 0.0 **** 0.0
31143 H 56.398 23.305 7.86 H 0.0 **** 0.0
31144 H 57.806 23.255 6.772 H 0.0 **** 0.0
31145 H 56.285 22.461 6.297 H 0.0 **** 0.0
31146 C 71.786 8.521 63.57 C 0.0 **** 0.0
31147 H 71.685 8.673 64.645 H 0.0 **** 0.0
31148 H 72.228 9.409 63.118 H 0.0 **** 0.0
31149 H 70.803 8.342 63.135 H 0.0 **** 0.0
31150 H 72.428 7.66 63.384 H 0.0 **** 0.0
31151 C 76.509 75.025 67.512 C 0.0 **** 0.0
31152 H 75.588 75.018 66.929 H 0.0 **** 0.0
31153 H 76.825 73.999 67.703 H 0.0 **** 0.0
31154 H 76.334 75.534 68.46 H 0.0 **** 0.0
31155 H 77.286 75.548 66.956 H 0.0 **** 0.0
31156 C 75.228 55.979 91.012 C 0.0 **** 0.0
31157 H 74.703 56.271 91.921 H 0.0 **** 0.0
31158 H 75.782 55.057 91.193 H 0.0 **** 0.0
31159 H 75.921 56.769 90.722 H 0.0 **** 0.0
31160 H 74.506 55.817 90.212 H 0.0 **** 0.0
31161 C 92.746 3.579 60.476 C 0.0 **** 0.0
31162 H 92.761 3.609 61.565 H 0.0 **** 0.0
31163 H 92.13 2.743 60.144 H 0.0 **** 0.0
31164 H 93.762 3.454 60.102 H 0.0 **** 0.0
31165 H 92.33 4.511 60.093 H 0.0 **** 0.0
31166 C 16.44 61.375 4.915 C 0.0 **** 0.0
31167 H 16.592 61.31 3.838 H 0.0 **** 0.0
31168 H 15.378 61.508 5.124 H 0.0 **** 0.0
31169 H 16.998 62.225 5.309 H 0.0 **** 0.0
31170 H 16.792 60.458 5.388 H 0.0 **** 0.0
31171 C 35.139 75.143 45.964 C 0.0 **** 0.0
31172 H 34.872 76.179 46.172 H 0.0 **** 0.0
31173 H 35.163 74.58 46.897 H 0.0 **** 0.0
31174 H 36.121 75.109 45.493 H 0.0 **** 0.0
31175 H 34.399 74.706 45.293 H 0.0 **** 0.0
31176 C 7.731 58.332 14.478 C 0.0 **** 0.0
31177 H 8.446 59.068 14.846 H 0.0 **** 0.0
31178 H 8.126 57.861 13.578 H 0.0 **** 0.0
31179 H 6.787 58.825 14.248 H 0.0 **** 0.0
31180 H 7.567 57.572 15.243 H 0.0 **** 0.0
31181 C 86.274 21.174 92.218 C 0.0 **** 0.0
31182 H 87.099 20.53 91.914 H 0.0 **** 0.0
31183 H 86.276 22.078 91.609 H 0.0 **** 0.0
31184 H 86.39 21.442 93.268 H 0.0 **** 0.0
31185 H 85.331 20.644 92.08 H 0.0 **** 0.0
31186 C 78.465 16.723 3.53 C 0.0 **** 0.0
31187 H 79.317 16.796 4.207 H 0.0 **** 0.0
31188 H 78.505 17.538 2.807 H 0.0 **** 0.0
31189 H 77.54 16.788 4.102 H 0.0 **** 0.0
31190 H 78.501 15.768 3.004 H 0.0 **** 0.0
31191 C 95.356 11.913 48.89 C 0.0 **** 0.0
31192 H 96.071 11.233 49.354 H 0.0 **** 0.0
31193 H 94.555 11.337 48.427 H 0.0 **** 0.0
31194 H 95.863 12.508 48.13 H 0.0 **** 0.0
31195 H 94.938 12.573 49.65 H 0.0 **** 0.0
31196 C 41.588 54.498 16.351 C 0.0 **** 0.0
31197 H 40.835 55.179 16.747 H 0.0 **** 0.0
31198 H 41.85 53.763 17.113 H 0.0 **** 0.0
31199 H 42.476 55.063 16.069 H 0.0 **** 0.0
31200 H 41.19 53.986 15.474 H 0.0 **** 0.0
31201 C 50.964 75.707 77.826 C 0.0 **** 0.0
31202 H 51.617 75.923 78.672 H 0.0 **** 0.0
31203 H 51.29 74.786 77.342 H 0.0 **** 0.0
31204 H 51.01 76.53 77.113 H 0.0 **** 0.0
31205 H 49.94 75.589 78.18 H 0.0 **** 0.0
31206 C 51.458 82.531 50.747 C 0.0 **** 0.0
31207 H 51.667 82.419 51.811 H 0.0 **** 0.0
31208 H 52.074 83.332 50.338 H 0.0 **** 0.0
31209 H 50.405 82.774 50.606 H 0.0 **** 0.0
31210 H 51.687 81.597 50.232 H 0.0 **** 0.0
31211 C 38.087 40.702 36.817 C 0.0 **** 0.0
31212 H 38.123 41.505 37.554 H 0.0 **** 0.0
31213 H 37.106 40.227 36.845 H 0.0 **** 0.0
31214 H 38.855 39.964 37.046 H 0.0 **** 0.0
31215 H 38.263 41.114 35.823 H 0.0 **** 0.0
31216 C 11.181 91.398 91.534 C 0.0 **** 0.0
31217 H 10.158 91.741 91.688 H 0.0 **** 0.0
31218 H 11.866 92.241 91.636 H 0.0 **** 0.0
31219 H 11.275 90.972 90.535 H 0.0 **** 0.0
31220 H 11.426 90.64 92.277 H 0.0 **** 0.0
31221 C 78.423 4.696 40.396 C 0.0 **** 0.0
31222 H 79.468 4.595 40.104 H 0.0 **** 0.0
31223 H 78.259 5.685 40.823 H 0.0 **** 0.0
31224 H 78.177 3.935 41.137 H 0.0 **** 0.0
31225 H 77.788 4.568 39.519 H 0.0 **** 0.0
31226 C 77.615 19.849 75.927 C 0.0 **** 0.0
31227 H 77.356 18.795 75.828 H 0.0 **** 0.0
31228 H 78.113 20.188 75.019 H 0.0 **** 0.0
31229 H 78.283 19.98 76.779 H 0.0 **** 0.0
31230 H 76.708 20.432 76.084 H 0.0 **** 0.0
31231 C 30.788 61.314 13.546 C 0.0 **** 0.0
31232 H 31.49 61.762 14.249 H 0.0 **** 0.0
31233 H 30.379 62.089 12.898 H 0.0 **** 0.0
31234 H 29.978 60.835 14.097 H 0.0 **** 0.0
31235 H 31.306 60.569 12.941 H 0.0 **** 0.0
31236 C 43.372 13.012 25.822 C 0.0 **** 0.0
31237 H 43.559 14.038 26.139 H 0.0 **** 0.0
31238 H 43.856 12.323 26.515 H 0.0 **** 0.0
31239 H 43.775 12.863 24.82 H 0.0 **** 0.0
31240 H 42.298 12.825 25.813 H 0.0 **** 0.0
31241 C 45.322 89.314 37.433 C 0.0 **** 0.0
31242 H 45.619 88.665 38.257 H 0.0 **** 0.0
31243 H 45.899 89.058 36.544 H 0.0 **** 0.0
31244 H 45.511 90.353 37.703 H 0.0 **** 0.0
31245 H 44.26 89.178 37.228 H 0.0 **** 0.0
31246 C 72.263 72.227 58.644 C 0.0 **** 0.0
31247 H 72.462 72.293 59.713 H 0.0 **** 0.0
31248 H 73.014 71.593 58.173 H 0.0 **** 0.0
31249 H 72.302 73.225 58.205 H 0.0 **** 0.0
31250 H 71.273 71.799 58.484 H 0.0 **** 0.0
31251 C 22.891 59.931 8.295 C 0.0 **** 0.0
31252 H 23.095 59.588 7.281 H 0.0 **** 0.0
31253 H 22.119 60.701 8.27 H 0.0 **** 0.0
31254 H 23.802 60.344 8.728 H 0.0 **** 0.0
31255 H 22.549 59.092 8.901 H 0.0 **** 0.0
31256 C 56.108 10.78 7.639 C 0.0 **** 0.0
31257 H 55.834 10.528 6.614 H 0.0 **** 0.0
31258 H 55.87 11.826 7.831 H 0.0 **** 0.0
31259 H 57.176 10.617 7.779 H 0.0 **** 0.0
31260 H 55.55 10.147 8.329 H 0.0 **** 0.0
31261 C 27.857 7.271 93.202 C 0.0 **** 0.0
31262 H 27.325 8.138 93.594 H 0.0 **** 0.0
31263 H 28.154 7.463 92.171 H 0.0 **** 0.0
31264 H 27.205 6.398 93.237 H 0.0 **** 0.0
31265 H 28.745 7.086 93.807 H 0.0 **** 0.0
31266 C 35.546 23.251 23.205 C 0.0 **** 0.0
31267 H 36.094 22.338 22.972 H 0.0 **** 0.0
31268 H 35.879 23.639 24.167 H 0.0 **** 0.0
31269 H 34.479 23.033 23.25 H 0.0 **** 0.0
31270 H 35.732 23.994 22.429 H 0.0 **** 0.0
31271 C 16.731 14.516 87.764 C 0.0 **** 0.0
31272 H 16.725 14.963 88.758 H 0.0 **** 0.0
31273 H 16.325 15.226 87.043 H 0.0 **** 0.0
31274 H 16.12 13.613 87.768 H 0.0 **** 0.0
31275 H 17.754 14.261 87.487 H 0.0 **** 0.0
31276 C 3.133 85.495 33.714 C 0.0 **** 0.0
31277 H 3.248 86.033 34.655 H 0.0 **** 0.0
31278 H 2.111 85.124 33.632 H 0.0 **** 0.0
31279 H 3.828 84.656 33.688 H 0.0 **** 0.0
31280 H 3.343 86.168 32.882 H 0.0 **** 0.0
31281 C 95.752 37.703 77.348 C 0.0 **** 0.0
31282 H 95.725 37.462 76.285 H 0.0 **** 0.0
31283 H 95.626 36.79 77.93 H 0.0 **** 0.0
31284 H 94.946 38.399 77.583 H 0.0 **** 0.0
31285 H 96.71 38.161 77.592 H 0.0 **** 0.0
31286 C 30.098 1.198 67.632 C 0.0 **** 0.0
31287 H 30.592 1.878 66.937 H 0.0 **** 0.0
31288 H 30.786 0.938 68.437 H 0.0 **** 0.0
31289 H 29.798 0.293 67.103 H 0.0 **** 0.0
31290 H 29.217 1.684 68.05 H 0.0 **** 0.0
31291 C 96.659 62.542 49.222 C 0.0 **** 0.0
31292 H 97.197 63.27 48.614 H 0.0 **** 0.0
31293 H 96.067 63.064 49.974 H 0.0 **** 0.0
31294 H 97.373 61.882 49.714 H 0.0 **** 0.0
31295 H 95.999 61.953 48.584 H 0.0 **** 0.0
31296 C 9.231 62.4 28.345 C 0.0 **** 0.0
31297 H 9.08 63.334 27.804 H 0.0 **** 0.0
31298 H 10.127 61.904 27.971 H 0.0 **** 0.0
31299 H 8.368 61.752 28.198 H 0.0 **** 0.0
31300 H 9.35 62.611 29.408 H 0.0 **** 0.0
31301 C 85.573 49.153 94.153 C 0.0 **** 0.0
31302 H 86.347 48.967 94.898 H 0.0 **** 0.0
31303 H 84.666 49.497 94.65 H 0.0 **** 0.0
31304 H 85.364 48.232 93.61 H 0.0 **** 0.0
31305 H 85.918 49.916 93.455 H 0.0 **** 0.0
31306 C 42.324 62.197 9.541 C 0.0 **** 0.0
31307 H 41.638 61.855 8.766 H 0.0 **** 0.0
31308 H 42.049 63.205 9.851 H 0.0 **** 0.0
31309 H 43.341 62.201 9.15 H 0.0 **** 0.0
31310 H 42.268 61.525 10.398 H 0.0 **** 0.0
31311 C 48.867 67.28 56.154 C 0.0 **** 0.0
31312 H 49.769 67.218 56.763 H 0.0 **** 0.0
31313 H 47.995 67.351 56.803 H 0.0 **** 0.0
31314 H 48.787 66.388 55.532 H 0.0 **** 0.0
31315 H 48.92 68.163 55.517 H 0.0 **** 0.0
31316 C 4.766 92.144 13.846 C 0.0 **** 0.0
31317 H 4.276 93.057 13.506 H 0.0 **** 0.0
31318 H 5.758 92.387 14.23 H 0.0 **** 0.0
31319 H 4.86 91.45 13.011 H 0.0 **** 0.0
31320 H 4.173 91.685 14.636 H 0.0 **** 0.0
31321 C 14.087 53.622 49.612 C 0.0 **** 0.0
31322 H 14.824 52.833 49.466 H 0.0 **** 0.0
31323 H 14.382 54.504 49.043 H 0.0 **** 0.0
31324 H 14.029 53.874 50.671 H 0.0 **** 0.0
31325 H 13.112 53.277 49.267 H 0.0 **** 0.0
31326 C 69.086 4.127 9.184 C 0.0 **** 0.0
31327 H 69.591 3.528 8.427 H 0.0 **** 0.0
31328 H 69.116 5.178 8.895 H 0.0 **** 0.0
31329 H 69.587 3.999 10.143 H 0.0 **** 0.0
31330 H 68.048 3.803 9.27 H 0.0 **** 0.0
31331 C 81.422 22.049 40.801 C 0.0 **** 0.0
31332 H 80.386 22.024 41.14 H 0.0 **** 0.0
31333 H 81.479 21.668 39.781 H 0.0 **** 0.0
31334 H 82.034 21.429 41.456 H 0.0 **** 0.0
31335 H 81.787 23.076 40.826 H 0.0 **** 0.0
31336 C 63.556 74.822 40.623 C 0.0 **** 0.0
31337 H 63.567 74.804 39.533 H 0.0 **** 0.0
31338 H 64.573 74.708 40.998 H 0.0 **** 0.0
31339 H 62.938 74.003 40.993 H 0.0 **** 0.0
31340 H 63.145 75.771 40.966 H 0.0 **** 0.0
31341 C 59.293 17.362 84.591 C 0.0 **** 0.0
31342 H 58.216 17.482 84.476 H 0.0 **** 0.0
31343 H 59.507 16.373 84.997 H 0.0 **** 0.0
31344 H 59.673 18.125 85.271 H 0.0 **** 0.0
31345 H 59.776 17.469 83.619 H 0.0 **** 0.0
31346 C 94.477 4.019 36.234 C 0.0 **** 0.0
31347 H 93.484 3.582 36.123 H 0.0 **** 0.0
31348 H 94.425 5.091 36.046 H 0.0 **** 0.0
31349 H 95.158 3.557 35.52 H 0.0 **** 0.0
31350 H 94.839 3.844 37.247 H 0.0 **** 0.0
31351 C 69.474 3.945 37.053 C 0.0 **** 0.0
31352 H 69.094 3.416 36.179 H 0.0 **** 0.0
31353 H 69.153 4.987 37.014 H 0.0 **** 0.0
31354 H 70.563 3.9 37.06 H 0.0 **** 0.0
31355 H 69.085 3.478 37.957 H 0.0 **** 0.0
31356 C 77.021 58.269 83.12 C 0.0 **** 0.0
31357 H 77.79 57.512 83.272 H 0.0 **** 0.0
31358 H 76.624 58.185 82.108 H 0.0 **** 0.0
31359 H 77.455 59.259 83.259 H 0.0 **** 0.0
31360 H 76.217 58.119 83.84 H 0.0 **** 0.0
31361 C 21.428 91.075 25.718 C 0.0 **** 0.0
31362 H 21.248 92.092 25.369 H 0.0 **** 0.0
31363 H 20.941 90.369 25.044 H 0.0 **** 0.0
31364 H 21.022 90.958 26.723 H 0.0 **** 0.0
31365 H 22.5 90.881 25.734 H 0.0 **** 0.0
31366 C 25.579 23.051 79.993 C 0.0 **** 0.0
31367 H 25.571 22.561 80.967 H 0.0 **** 0.0
31368 H 24.94 22.498 79.304 H 0.0 **** 0.0
31369 H 26.598 23.073 79.606 H 0.0 **** 0.0
31370 H 25.207 24.07 80.096 H 0.0 **** 0.0
31371 C 93.288 93.785 84.959 C 0.0 **** 0.0
31372 H 93.218 93.985 86.029 H 0.0 **** 0.0
31373 H 92.36 94.086 84.472 H 0.0 **** 0.0
31374 H 93.453 92.719 84.799 H 0.0 **** 0.0
31375 H 94.12 94.349 84.539 H 0.0 **** 0.0
31376 C 57.856 92.847 25.944 C 0.0 **** 0.0
31377 H 58.113 93.905 25.998 H 0.0 **** 0.0
31378 H 57.458 92.52 26.905 H 0.0 **** 0.0
31379 H 58.748 92.269 25.704 H 0.0 **** 0.0
31380 H 57.105 92.695 25.169 H 0.0 **** 0.0
31381 C 59.376 56.654 26.898 C 0.0 **** 0.0
31382 H 59.79 57.163 27.768 H 0.0 **** 0.0
31383 H 59.959 56.912 26.014 H 0.0 **** 0.0
31384 H 58.341 56.964 26.754 H 0.0 **** 0.0
31385 H 59.413 55.576 27.056 H 0.0 **** 0.0
31386 C 58.575 85.174 57.518 C 0.0 **** 0.0
31387 H 58.776 84.356 58.21 H 0.0 **** 0.0
31388 H 59.194 86.032 57.781 H 0.0 **** 0.0
31389 H 57.523 85.452 57.582 H 0.0 **** 0.0
31390 H 58.806 84.855 56.502 H 0.0 **** 0.0
31391 C 38.434 49.606 15.73 C 0.0 **** 0.0
31392 H 38.887 50.053 16.615 H 0.0 **** 0.0
31393 H 38.891 50.029 14.835 H 0.0 **** 0.0
31394 H 37.364 49.815 15.725 H 0.0 **** 0.0
31395 H 38.594 48.528 15.745 H 0.0 **** 0.0
31396 C 57.009 20.542 78.2 C 0.0 **** 0.0
31397 H 56.414 19.628 78.196 H 0.0 **** 0.0
31398 H 58.064 20.288 78.098 H 0.0 **** 0.0
31399 H 56.852 21.073 79.139 H 0.0 **** 0.0
31400 H 56.705 21.177 77.369 H 0.0 **** 0.0
31401 C 92.045 47.641 90.277 C 0.0 **** 0.0
31402 H 91.176 47.155 90.72 H 0.0 **** 0.0
31403 H 91.883 47.77 89.207 H 0.0 **** 0.0
31404 H 92.929 47.023 90.44 H 0.0 **** 0.0
31405 H 92.193 48.615 90.743 H 0.0 **** 0.0
31406 C 11.375 83.02 60.202 C 0.0 **** 0.0
31407 H 10.848 82.154 60.603 H 0.0 **** 0.0
31408 H 11.977 83.475 60.989 H 0.0 **** 0.0
31409 H 10.651 83.746 59.832 H 0.0 **** 0.0
31410 H 12.023 82.705 59.385 H 0.0 **** 0.0
31411 C 28.805 24.311 47.808 C 0.0 **** 0.0
31412 H 28.424 23.91 46.868 H 0.0 **** 0.0
31413 H 29.645 23.704 48.147 H 0.0 **** 0.0
31414 H 28.015 24.291 48.558 H 0.0 **** 0.0
31415 H 29.137 25.338 47.656 H 0.0 **** 0.0
31416 C 23.765 14.783 14.251 C 0.0 **** 0.0
31417 H 23.685 15.852 14.448 H 0.0 **** 0.0
31418 H 22.77 14.369 14.088 H 0.0 **** 0.0
31419 H 24.228 14.29 15.106 H 0.0 **** 0.0
31420 H 24.376 14.622 13.363 H 0.0 **** 0.0
31421 C 47.473 26.081 41.553 C 0.0 **** 0.0
31422 H 47.189 25.051 41.335 H 0.0 **** 0.0
31423 H 48.557 26.148 41.645 H 0.0 **** 0.0
31424 H 47.008 26.395 42.488 H 0.0 **** 0.0
31425 H 47.136 26.729 40.744 H 0.0 **** 0.0
31426 C 30.677 85.911 32.984 C 0.0 **** 0.0
31427 H 29.973 86.743 33.02 H 0.0 **** 0.0
31428 H 30.885 85.657 31.944 H 0.0 **** 0.0
31429 H 30.245 85.048 33.49 H 0.0 **** 0.0
31430 H 31.604 86.198 33.481 H 0.0 **** 0.0
31431 C 2.316 30.326 52.777 C 0.0 **** 0.0
31432 H 1.772 30.161 51.847 H 0.0 **** 0.0
31433 H 3.177 29.659 52.817 H 0.0 **** 0.0
31434 H 1.658 30.122 53.623 H 0.0 **** 0.0
31435 H 2.654 31.361 52.822 H 0.0 **** 0.0
31436 C 51.867 58.148 10.867 C 0.0 **** 0.0
31437 H 52.285 58.108 9.86 H 0.0 **** 0.0
31438 H 50.865 58.575 10.827 H 0.0 **** 0.0
31439 H 52.503 58.768 11.499 H 0.0 **** 0.0
31440 H 51.818 57.14 11.279 H 0.0 **** 0.0
31441 C 16.006 89.373 62.9 C 0.0 **** 0.0
31442 H 15.324 88.766 63.496 H 0.0 **** 0.0
31443 H 15.995 89.022 61.867 H 0.0 **** 0.0
31444 H 17.015 89.288 63.303 H 0.0 **** 0.0
31445 H 15.687 90.415 62.933 H 0.0 **** 0.0
31446 C 20.336 13.505 67.942 C 0.0 **** 0.0
31447 H 20.687 13.115 66.987 H 0.0 **** 0.0
31448 H 21.17 13.959 68.478 H 0.0 **** 0.0
31449 H 19.921 12.692 68.537 H 0.0 **** 0.0
31450 H 19.565 14.256 67.766 H 0.0 **** 0.0
31451 C 87.16 60.128 55.545 C 0.0 **** 0.0
31452 H 87.1 60.189 56.632 H 0.0 **** 0.0
31453 H 87.252 61.132 55.13 H 0.0 **** 0.0
31454 H 86.258 59.654 55.158 H 0.0 **** 0.0
31455 H 88.031 59.537 55.263 H 0.0 **** 0.0
31456 C 71.442 17.356 2.431 C 0.0 **** 0.0
31457 H 71.349 17.394 1.345 H 0.0 **** 0.0
31458 H 71.432 18.369 2.832 H 0.0 **** 0.0
31459 H 72.379 16.868 2.698 H 0.0 **** 0.0
31460 H 70.607 16.791 2.847 H 0.0 **** 0.0
31461 C 72.239 89.371 12.091 C 0.0 **** 0.0
31462 H 71.998 88.725 12.936 H 0.0 **** 0.0
31463 H 71.318 89.682 11.598 H 0.0 **** 0.0
31464 H 72.864 88.826 11.384 H 0.0 **** 0.0
31465 H 72.775 90.25 12.448 H 0.0 **** 0.0
31466 C 47.515 81.738 1.695 C 0.0 **** 0.0
31467 H 47.228 81.801 2.745 H 0.0 **** 0.0
31468 H 47.673 82.742 1.301 H 0.0 **** 0.0
31469 H 46.723 81.246 1.131 H 0.0 **** 0.0
31470 H 48.437 81.163 1.605 H 0.0 **** 0.0
31471 C 14.389 10.845 89.07 C 0.0 **** 0.0
31472 H 14.392 10.214 89.959 H 0.0 **** 0.0
31473 H 15.158 11.612 89.167 H 0.0 **** 0.0
31474 H 13.413 11.319 88.963 H 0.0 **** 0.0
31475 H 14.594 10.233 88.191 H 0.0 **** 0.0
31476 C 47.382 9.216 92.2 C 0.0 **** 0.0
31477 H 47.305 9.189 93.287 H 0.0 **** 0.0
31478 H 46.4 9.039 91.762 H 0.0 **** 0.0
31479 H 48.075 8.444 91.866 H 0.0 **** 0.0
31480 H 47.749 10.194 91.888 H 0.0 **** 0.0
31481 C 71.053 68.771 64.583 C 0.0 **** 0.0
31482 H 71.303 68.407 65.58 H 0.0 **** 0.0
31483 H 71.615 68.205 63.839 H 0.0 **** 0.0
31484 H 71.31 69.827 64.507 H 0.0 **** 0.0
31485 H 69.985 68.643 64.406 H 0.0 **** 0.0
31486 C 65.528 7.082 97.856 C 0.0 **** 0.0
31487 H 64.966 7.452 96.998 H 0.0 **** 0.0
31488 H 64.849 6.577 98.544 H 0.0 **** 0.0
31489 H 66.005 7.919 98.365 H 0.0 **** 0.0
31490 H 66.29 6.381 97.516 H 0.0 **** 0.0
31491 C 53.956 76.849 54.397 C 0.0 **** 0.0
31492 H 53.266 77.415 55.022 H 0.0 **** 0.0
31493 H 54.937 76.821 54.872 H 0.0 **** 0.0
31494 H 54.038 77.328 53.421 H 0.0 **** 0.0
31495 H 53.583 75.832 54.273 H 0.0 **** 0.0
31496 C 70.641 54.201 58.663 C 0.0 **** 0.0
31497 H 70.29 53.393 58.021 H 0.0 **** 0.0
31498 H 71.653 53.98 59.003 H 0.0 **** 0.0
31499 H 69.98 54.293 59.524 H 0.0 **** 0.0
31500 H 70.641 55.136 58.103 H 0.0 **** 0.0
31501 C 97.324 72.935 15.937 C 0.0 **** 0.0
31502 H 97.84 73.642 15.287 H 0.0 **** 0.0
31503 H 96.91 72.125 15.336 H 0.0 **** 0.0
31504 H 96.518 73.447 16.462 H 0.0 **** 0.0
31505 H 98.029 72.527 16.661 H 0.0 **** 0.0
31506 C 6.612 80.84 49.669 C 0.0 **** 0.0
31507 H 5.571 80.861 49.99 H 0.0 **** 0.0
31508 H 7.197 81.519 50.29 H 0.0 **** 0.0
31509 H 6.677 81.153 48.627 H 0.0 **** 0.0
31510 H 7.002 79.827 49.77 H 0.0 **** 0.0
31511 C 31.182 23.532 32.023 C 0.0 **** 0.0
31512 H 31.528 24.517 32.336 H 0.0 **** 0.0
31513 H 31.452 22.795 32.78 H 0.0 **** 0.0
31514 H 31.651 23.267 31.075 H 0.0 **** 0.0
31515 H 30.099 23.549 31.901 H 0.0 **** 0.0
31516 C 96.416 54.749 13.806 C 0.0 **** 0.0
31517 H 96.148 55.721 14.22 H 0.0 **** 0.0
31518 H 95.928 54.619 12.84 H 0.0 **** 0.0
31519 H 96.092 53.962 14.486 H 0.0 **** 0.0
31520 H 97.497 54.696 13.677 H 0.0 **** 0.0
31521 C 17.903 73.247 25.653 C 0.0 **** 0.0
31522 H 17.563 73.83 26.509 H 0.0 **** 0.0
31523 H 18.527 72.423 26.0 H 0.0 **** 0.0
31524 H 18.481 73.885 24.985 H 0.0 **** 0.0
31525 H 17.039 72.849 25.12 H 0.0 **** 0.0
31526 C 28.88 28.221 78.626 C 0.0 **** 0.0
31527 H 29.518 27.367 78.853 H 0.0 **** 0.0
31528 H 29.284 29.113 79.105 H 0.0 **** 0.0
31529 H 27.874 28.032 79.001 H 0.0 **** 0.0
31530 H 28.844 28.371 77.547 H 0.0 **** 0.0
31531 C 80.651 31.064 66.982 C 0.0 **** 0.0
31532 H 80.781 29.99 67.118 H 0.0 **** 0.0
31533 H 79.858 31.244 66.256 H 0.0 **** 0.0
31534 H 81.582 31.499 66.62 H 0.0 **** 0.0
31535 H 80.382 31.52 67.935 H 0.0 **** 0.0
31536 C 51.343 63.613 84.268 C 0.0 **** 0.0
31537 H 51.399 63.916 85.313 H 0.0 **** 0.0
31538 H 52.296 63.819 83.779 H 0.0 **** 0.0
31539 H 50.551 64.172 83.77 H 0.0 **** 0.0
31540 H 51.128 62.547 84.21 H 0.0 **** 0.0
31541 C 95.698 71.831 73.99 C 0.0 **** 0.0
31542 H 96.377 71.455 74.755 H 0.0 **** 0.0
31543 H 94.672 71.774 74.356 H 0.0 **** 0.0
31544 H 95.796 71.227 73.088 H 0.0 **** 0.0
31545 H 95.946 72.868 73.763 H 0.0 **** 0.0
31546 C 18.24 14.343 98.335 C 0.0 **** 0.0
31547 H 18.532 15.196 97.723 H 0.0 **** 0.0
31548 H 19.062 14.075 99.0 H 0.0 **** 0.0
31549 H 18.003 13.497 97.69 H 0.0 **** 0.0
31550 H 17.363 14.605 98.928 H 0.0 **** 0.0
31551 C 33.721 70.01 59.685 C 0.0 **** 0.0
31552 H 34.642 70.08 59.105 H 0.0 **** 0.0
31553 H 33.791 70.66 60.557 H 0.0 **** 0.0
31554 H 33.575 68.98 60.01 H 0.0 **** 0.0
31555 H 32.878 70.319 59.067 H 0.0 **** 0.0
31556 C 43.64 8.363 1.486 C 0.0 **** 0.0
31557 H 43.448 7.7 2.33 H 0.0 **** 0.0
31558 H 44.643 8.181 1.101 H 0.0 **** 0.0
31559 H 43.558 9.4 1.814 H 0.0 **** 0.0
31560 H 42.908 8.171 0.701 H 0.0 **** 0.0
31561 C 61.566 49.578 30.591 C 0.0 **** 0.0
31562 H 61.525 49.504 29.504 H 0.0 **** 0.0
31563 H 60.592 49.888 30.971 H 0.0 **** 0.0
31564 H 62.319 50.313 30.876 H 0.0 **** 0.0
31565 H 61.828 48.607 31.011 H 0.0 **** 0.0
31566 C 59.175 31.688 78.766 C 0.0 **** 0.0
31567 H 59.053 30.824 78.113 H 0.0 **** 0.0
31568 H 58.387 31.687 79.52 H 0.0 **** 0.0
31569 H 59.111 32.602 78.175 H 0.0 **** 0.0
31570 H 60.147 31.64 79.256 H 0.0 **** 0.0
31571 C 25.149 39.554 9.675 C 0.0 **** 0.0
31572 H 25.238 39.704 10.751 H 0.0 **** 0.0
31573 H 24.095 39.504 9.401 H 0.0 **** 0.0
31574 H 25.643 38.624 9.396 H 0.0 **** 0.0
31575 H 25.621 40.387 9.153 H 0.0 **** 0.0
31576 C 13.168 64.849 59.169 C 0.0 **** 0.0
31577 H 13.198 64.432 58.162 H 0.0 **** 0.0
31578 H 12.772 64.104 59.859 H 0.0 **** 0.0
31579 H 12.526 65.73 59.178 H 0.0 **** 0.0
31580 H 14.175 65.13 59.476 H 0.0 **** 0.0
31581 C 94.503 11.512 59.54 C 0.0 **** 0.0
31582 H 95.509 11.64 59.139 H 0.0 **** 0.0
31583 H 93.993 12.476 59.553 H 0.0 **** 0.0
31584 H 94.564 11.12 60.555 H 0.0 **** 0.0
31585 H 93.948 10.815 58.914 H 0.0 **** 0.0
31586 C 92.912 12.911 90.276 C 0.0 **** 0.0
31587 H 92.782 12.673 89.22 H 0.0 **** 0.0
31588 H 93.836 12.461 90.639 H 0.0 **** 0.0
31589 H 92.068 12.517 90.843 H 0.0 **** 0.0
31590 H 92.96 13.993 90.401 H 0.0 **** 0.0
31591 C 58.649 56.641 48.626 C 0.0 **** 0.0
31592 H 57.856 56.636 47.879 H 0.0 **** 0.0
31593 H 58.342 57.247 49.478 H 0.0 **** 0.0
31594 H 59.556 57.06 48.19 H 0.0 **** 0.0
31595 H 58.843 55.62 48.957 H 0.0 **** 0.0
31596 C 46.277 61.907 42.841 C 0.0 **** 0.0
31597 H 46.201 62.148 41.781 H 0.0 **** 0.0
31598 H 45.596 62.543 43.407 H 0.0 **** 0.0
31599 H 47.299 62.075 43.18 H 0.0 **** 0.0
31600 H 46.01 60.861 42.996 H 0.0 **** 0.0
31601 C 57.652 8.343 49.0 C 0.0 **** 0.0
31602 H 57.672 8.335 47.911 H 0.0 **** 0.0
31603 H 56.95 7.589 49.357 H 0.0 **** 0.0
31604 H 57.338 9.327 49.35 H 0.0 **** 0.0
31605 H 58.648 8.122 49.383 H 0.0 **** 0.0
31606 C 25.326 52.067 69.778 C 0.0 **** 0.0
31607 H 25.151 52.117 70.853 H 0.0 **** 0.0
31608 H 26.399 52.084 69.584 H 0.0 **** 0.0
31609 H 24.855 52.923 69.294 H 0.0 **** 0.0
31610 H 24.899 51.145 69.384 H 0.0 **** 0.0
31611 C 40.802 86.297 8.414 C 0.0 **** 0.0
31612 H 40.74 86.006 7.365 H 0.0 **** 0.0
31613 H 41.394 87.208 8.504 H 0.0 **** 0.0
31614 H 41.274 85.498 8.985 H 0.0 **** 0.0
31615 H 39.798 86.476 8.8 H 0.0 **** 0.0
31616 C 50.354 27.374 75.003 C 0.0 **** 0.0
31617 H 49.319 27.061 75.138 H 0.0 **** 0.0
31618 H 50.449 28.431 75.254 H 0.0 **** 0.0
31619 H 50.647 27.219 73.964 H 0.0 **** 0.0
31620 H 50.999 26.786 75.655 H 0.0 **** 0.0
31621 C 45.886 86.493 8.583 C 0.0 **** 0.0
31622 H 45.714 86.307 7.523 H 0.0 **** 0.0
31623 H 45.021 87.004 9.007 H 0.0 **** 0.0
31624 H 46.772 87.117 8.702 H 0.0 **** 0.0
31625 H 46.038 85.545 9.098 H 0.0 **** 0.0
31626 C 96.209 36.378 53.003 C 0.0 **** 0.0
31627 H 96.89 35.551 52.802 H 0.0 **** 0.0
31628 H 96.716 37.125 53.614 H 0.0 **** 0.0
31629 H 95.333 36.007 53.535 H 0.0 **** 0.0
31630 H 95.898 36.829 52.06 H 0.0 **** 0.0
31631 C 36.583 50.371 20.236 C 0.0 **** 0.0
31632 H 35.653 50.336 20.804 H 0.0 **** 0.0
31633 H 37.182 49.49 20.466 H 0.0 **** 0.0
31634 H 37.138 51.269 20.505 H 0.0 **** 0.0
31635 H 36.357 50.389 19.17 H 0.0 **** 0.0
31636 C 92.464 76.427 19.972 C 0.0 **** 0.0
31637 H 92.584 76.337 21.052 H 0.0 **** 0.0
31638 H 93.297 75.933 19.472 H 0.0 **** 0.0
31639 H 92.446 77.482 19.696 H 0.0 **** 0.0
31640 H 91.528 75.957 19.671 H 0.0 **** 0.0
31641 C 11.273 76.512 75.22 C 0.0 **** 0.0
31642 H 11.256 76.371 74.14 H 0.0 **** 0.0
31643 H 10.497 75.898 75.679 H 0.0 **** 0.0
31644 H 11.09 77.561 75.452 H 0.0 **** 0.0
31645 H 12.247 76.218 75.609 H 0.0 **** 0.0
31646 C 18.888 77.477 23.547 C 0.0 **** 0.0
31647 H 18.201 78.265 23.856 H 0.0 **** 0.0
31648 H 18.924 77.433 22.458 H 0.0 **** 0.0
31649 H 18.543 76.52 23.939 H 0.0 **** 0.0
31650 H 19.884 77.691 23.936 H 0.0 **** 0.0
31651 C 57.041 44.565 26.869 C 0.0 **** 0.0
31652 H 56.934 44.896 27.902 H 0.0 **** 0.0
31653 H 58.076 44.271 26.688 H 0.0 **** 0.0
31654 H 56.771 45.379 26.197 H 0.0 **** 0.0
31655 H 56.385 43.713 26.691 H 0.0 **** 0.0
31656 C 38.506 15.316 18.701 C 0.0 **** 0.0
31657 H 39.173 15.694 19.475 H 0.0 **** 0.0
31658 H 37.618 15.947 18.647 H 0.0 **** 0.0
31659 H 38.212 14.294 18.943 H 0.0 **** 0.0
31660 H 39.02 15.328 17.74 H 0.0 **** 0.0
31661 C 40.63 54.361 77.954 C 0.0 **** 0.0
31662 H 40.702 53.572 77.204 H 0.0 **** 0.0
31663 H 39.585 54.646 78.081 H 0.0 **** 0.0
31664 H 41.206 55.226 77.627 H 0.0 **** 0.0
31665 H 41.026 53.997 78.902 H 0.0 **** 0.0
31666 C 41.044 2.404 18.357 C 0.0 **** 0.0
31667 H 40.704 3.328 17.888 H 0.0 **** 0.0
31668 H 40.233 1.675 18.351 H 0.0 **** 0.0
31669 H 41.343 2.607 19.385 H 0.0 **** 0.0
31670 H 41.894 2.008 17.802 H 0.0 **** 0.0
31671 C 6.139 3.135 36.825 C 0.0 **** 0.0
31672 H 7.111 2.671 36.997 H 0.0 **** 0.0
31673 H 6.042 4.019 37.455 H 0.0 **** 0.0
31674 H 5.349 2.424 37.07 H 0.0 **** 0.0
31675 H 6.056 3.424 35.777 H 0.0 **** 0.0
31676 C 15.591 37.459 90.308 C 0.0 **** 0.0
31677 H 15.014 38.383 90.333 H 0.0 **** 0.0
31678 H 16.304 37.499 89.484 H 0.0 **** 0.0
31679 H 14.918 36.614 90.166 H 0.0 **** 0.0
31680 H 16.129 37.341 91.249 H 0.0 **** 0.0
31681 C 91.05 3.155 48.267 C 0.0 **** 0.0
31682 H 90.911 3.306 47.196 H 0.0 **** 0.0
31683 H 90.303 3.731 48.814 H 0.0 **** 0.0
31684 H 92.048 3.489 48.553 H 0.0 **** 0.0
31685 H 90.939 2.097 48.502 H 0.0 **** 0.0
31686 C 78.951 46.47 6.813 C 0.0 **** 0.0
31687 H 78.801 46.723 5.764 H 0.0 **** 0.0
31688 H 79.837 46.984 7.188 H 0.0 **** 0.0
31689 H 79.087 45.393 6.911 H 0.0 **** 0.0
31690 H 78.08 46.78 7.39 H 0.0 **** 0.0
31691 C 12.995 32.871 53.447 C 0.0 **** 0.0
31692 H 12.887 31.792 53.556 H 0.0 **** 0.0
31693 H 14.043 33.115 53.269 H 0.0 **** 0.0
31694 H 12.658 33.363 54.359 H 0.0 **** 0.0
31695 H 12.394 33.214 52.605 H 0.0 **** 0.0
31696 C 86.36 11.459 9.203 C 0.0 **** 0.0
31697 H 86.708 11.063 8.249 H 0.0 **** 0.0
31698 H 86.938 11.016 10.014 H 0.0 **** 0.0
31699 H 85.305 11.216 9.334 H 0.0 **** 0.0
31700 H 86.487 12.542 9.215 H 0.0 **** 0.0
31701 C 63.975 8.264 43.766 C 0.0 **** 0.0
31702 H 64.811 8.655 43.187 H 0.0 **** 0.0
31703 H 63.277 9.073 43.988 H 0.0 **** 0.0
31704 H 64.347 7.839 44.698 H 0.0 **** 0.0
31705 H 63.464 7.491 43.192 H 0.0 **** 0.0
31706 C 73.986 27.568 87.829 C 0.0 **** 0.0
31707 H 73.878 27.015 86.896 H 0.0 **** 0.0
31708 H 73.294 27.168 88.571 H 0.0 **** 0.0
31709 H 73.764 28.621 87.655 H 0.0 **** 0.0
31710 H 75.008 27.468 88.194 H 0.0 **** 0.0
31711 C 86.737 83.354 96.423 C 0.0 **** 0.0
31712 H 86.78 83.077 97.476 H 0.0 **** 0.0
31713 H 87.168 84.346 96.291 H 0.0 **** 0.0
31714 H 85.699 83.36 96.091 H 0.0 **** 0.0
31715 H 87.303 82.631 95.834 H 0.0 **** 0.0
31716 C 84.48 44.313 13.145 C 0.0 **** 0.0
31717 H 83.846 44.336 14.031 H 0.0 **** 0.0
31718 H 83.855 44.276 12.252 H 0.0 **** 0.0
31719 H 85.119 43.43 13.178 H 0.0 **** 0.0
31720 H 85.1 45.209 13.118 H 0.0 **** 0.0
31721 C 28.78 49.842 88.48 C 0.0 **** 0.0
31722 H 27.842 50.05 88.996 H 0.0 **** 0.0
31723 H 29.588 50.397 88.958 H 0.0 **** 0.0
31724 H 28.696 50.147 87.437 H 0.0 **** 0.0
31725 H 28.993 48.774 88.531 H 0.0 **** 0.0
31726 C 45.135 48.637 30.629 C 0.0 **** 0.0
31727 H 45.966 49.277 30.332 H 0.0 **** 0.0
31728 H 44.201 49.191 30.538 H 0.0 **** 0.0
31729 H 45.272 48.321 31.663 H 0.0 **** 0.0
31730 H 45.103 47.76 29.982 H 0.0 **** 0.0
31731 C 66.387 53.586 3.581 C 0.0 **** 0.0
31732 H 66.426 53.733 4.661 H 0.0 **** 0.0
31733 H 65.383 53.812 3.221 H 0.0 **** 0.0
31734 H 66.633 52.551 3.346 H 0.0 **** 0.0
31735 H 67.104 54.25 3.099 H 0.0 **** 0.0
31736 C 89.849 67.062 79.386 C 0.0 **** 0.0
31737 H 89.576 66.074 79.014 H 0.0 **** 0.0
31738 H 90.866 67.299 79.073 H 0.0 **** 0.0
31739 H 89.793 67.068 80.475 H 0.0 **** 0.0
31740 H 89.162 67.805 78.983 H 0.0 **** 0.0
31741 C 38.327 30.879 66.683 C 0.0 **** 0.0
31742 H 38.424 30.577 65.64 H 0.0 **** 0.0
31743 H 38.949 31.755 66.866 H 0.0 **** 0.0
31744 H 38.649 30.062 67.329 H 0.0 **** 0.0
31745 H 37.286 31.121 66.895 H 0.0 **** 0.0
31746 C 14.216 6.875 78.206 C 0.0 **** 0.0
31747 H 14.685 6.364 79.046 H 0.0 **** 0.0
31748 H 13.136 6.899 78.353 H 0.0 **** 0.0
31749 H 14.445 6.343 77.283 H 0.0 **** 0.0
31750 H 14.597 7.894 78.142 H 0.0 **** 0.0
31751 C 10.461 50.171 30.497 C 0.0 **** 0.0
31752 H 9.385 50.284 30.36 H 0.0 **** 0.0
31753 H 10.793 49.251 30.015 H 0.0 **** 0.0
31754 H 10.688 50.125 31.563 H 0.0 **** 0.0
31755 H 10.975 51.022 30.052 H 0.0 **** 0.0
31756 C 15.322 5.657 64.346 C 0.0 **** 0.0
31757 H 15.422 4.598 64.583 H 0.0 **** 0.0
31758 H 14.27 5.941 64.387 H 0.0 **** 0.0
31759 H 15.711 5.844 63.345 H 0.0 **** 0.0
31760 H 15.886 6.245 65.071 H 0.0 **** 0.0
31761 C 6.474 80.898 73.451 C 0.0 **** 0.0
31762 H 5.766 80.422 72.771 H 0.0 **** 0.0
31763 H 6.828 81.831 73.012 H 0.0 **** 0.0
31764 H 7.319 80.231 73.619 H 0.0 **** 0.0
31765 H 5.981 81.106 74.4 H 0.0 **** 0.0
31766 C 83.447 23.512 72.518 C 0.0 **** 0.0
31767 H 83.038 24.152 71.737 H 0.0 **** 0.0
31768 H 83.055 23.825 73.486 H 0.0 **** 0.0
31769 H 84.534 23.593 72.522 H 0.0 **** 0.0
31770 H 83.16 22.478 72.327 H 0.0 **** 0.0
31771 C 50.617 66.034 14.001 C 0.0 **** 0.0
31772 H 50.314 66.374 14.992 H 0.0 **** 0.0
31773 H 49.9 65.3 13.634 H 0.0 **** 0.0
31774 H 51.605 65.579 14.06 H 0.0 **** 0.0
31775 H 50.648 66.885 13.32 H 0.0 **** 0.0
31776 C 72.334 85.603 18.197 C 0.0 **** 0.0
31777 H 72.339 85.6 17.107 H 0.0 **** 0.0
31778 H 72.419 86.628 18.558 H 0.0 **** 0.0
31779 H 73.176 85.016 18.565 H 0.0 **** 0.0
31780 H 71.403 85.166 18.557 H 0.0 **** 0.0
31781 C 62.704 85.007 61.467 C 0.0 **** 0.0
31782 H 62.989 84.005 61.787 H 0.0 **** 0.0
31783 H 63.158 85.743 62.133 H 0.0 **** 0.0
31784 H 61.619 85.106 61.502 H 0.0 **** 0.0
31785 H 63.052 85.176 60.448 H 0.0 **** 0.0
31786 C 69.864 54.82 4.727 C 0.0 **** 0.0
31787 H 70.099 53.774 4.92 H 0.0 **** 0.0
31788 H 70.789 55.393 4.656 H 0.0 **** 0.0
31789 H 69.256 55.212 5.543 H 0.0 **** 0.0
31790 H 69.313 54.903 3.791 H 0.0 **** 0.0
31791 C 84.601 40.746 47.055 C 0.0 **** 0.0
31792 H 85.123 41.411 47.743 H 0.0 **** 0.0
31793 H 84.186 39.903 47.609 H 0.0 **** 0.0
31794 H 85.3 40.378 46.304 H 0.0 **** 0.0
31795 H 83.794 41.291 46.564 H 0.0 **** 0.0
31796 C 60.284 69.132 51.933 C 0.0 **** 0.0
31797 H 59.879 70.143 51.887 H 0.0 **** 0.0
31798 H 61.071 69.089 52.685 H 0.0 **** 0.0
31799 H 60.695 68.861 50.96 H 0.0 **** 0.0
31800 H 59.489 68.434 52.198 H 0.0 **** 0.0
31801 C 49.913 84.335 4.83 C 0.0 **** 0.0
31802 H 50.854 84.767 4.491 H 0.0 **** 0.0
31803 H 49.095 84.728 4.227 H 0.0 **** 0.0
31804 H 49.751 84.593 5.877 H 0.0 **** 0.0
31805 H 49.954 83.25 4.726 H 0.0 **** 0.0
31806 C 15.638 33.378 82.732 C 0.0 **** 0.0
31807 H 15.618 33.405 81.642 H 0.0 **** 0.0
31808 H 15.336 32.388 83.076 H 0.0 **** 0.0
31809 H 14.951 34.126 83.127 H 0.0 **** 0.0
31810 H 16.648 33.592 83.081 H 0.0 **** 0.0
31811 C 7.629 25.215 26.884 C 0.0 **** 0.0
31812 H 7.593 24.924 25.834 H 0.0 **** 0.0
31813 H 8.077 26.205 26.971 H 0.0 **** 0.0
31814 H 8.227 24.495 27.441 H 0.0 **** 0.0
31815 H 6.617 25.237 27.289 H 0.0 **** 0.0
31816 C 60.332 40.789 30.497 C 0.0 **** 0.0
31817 H 59.414 41.161 30.951 H 0.0 **** 0.0
31818 H 61.19 41.141 31.07 H 0.0 **** 0.0
31819 H 60.404 41.154 29.473 H 0.0 **** 0.0
31820 H 60.32 39.699 30.494 H 0.0 **** 0.0
31821 C 30.217 90.565 20.744 C 0.0 **** 0.0
31822 H 29.33 89.934 20.801 H 0.0 **** 0.0
31823 H 30.677 90.456 19.762 H 0.0 **** 0.0
31824 H 30.927 90.262 21.514 H 0.0 **** 0.0
31825 H 29.933 91.606 20.9 H 0.0 **** 0.0
31826 C 63.793 17.625 76.875 C 0.0 **** 0.0
31827 H 64.194 16.628 76.691 H 0.0 **** 0.0
31828 H 64.376 18.359 76.318 H 0.0 **** 0.0
31829 H 63.849 17.848 77.94 H 0.0 **** 0.0
31830 H 62.753 17.663 76.549 H 0.0 **** 0.0
31831 C 94.373 19.23 75.161 C 0.0 **** 0.0
31832 H 94.094 18.228 75.487 H 0.0 **** 0.0
31833 H 95.061 19.159 74.318 H 0.0 **** 0.0
31834 H 94.859 19.757 75.983 H 0.0 **** 0.0
31835 H 93.48 19.775 74.857 H 0.0 **** 0.0
31836 C 90.501 10.647 36.01 C 0.0 **** 0.0
31837 H 91.545 10.337 35.982 H 0.0 **** 0.0
31838 H 90.443 11.734 35.944 H 0.0 **** 0.0
31839 H 90.049 10.315 36.945 H 0.0 **** 0.0
31840 H 89.967 10.202 35.17 H 0.0 **** 0.0
31841 C 79.647 4.131 61.119 C 0.0 **** 0.0
31842 H 79.819 3.093 61.404 H 0.0 **** 0.0
31843 H 78.599 4.383 61.285 H 0.0 **** 0.0
31844 H 79.89 4.264 60.065 H 0.0 **** 0.0
31845 H 80.278 4.783 61.723 H 0.0 **** 0.0
31846 C 9.16 5.727 55.061 C 0.0 **** 0.0
31847 H 10.04 5.084 55.055 H 0.0 **** 0.0
31848 H 9.296 6.522 55.794 H 0.0 **** 0.0
31849 H 8.281 5.137 55.324 H 0.0 **** 0.0
31850 H 9.022 6.163 54.072 H 0.0 **** 0.0
31851 C 4.977 42.228 22.376 C 0.0 **** 0.0
31852 H 5.209 43.197 22.817 H 0.0 **** 0.0
31853 H 5.297 41.435 23.053 H 0.0 **** 0.0
31854 H 5.5 42.126 21.425 H 0.0 **** 0.0
31855 H 3.903 42.152 22.21 H 0.0 **** 0.0
31856 C 37.963 3.94 17.333 C 0.0 **** 0.0
31857 H 38.187 4.22 16.303 H 0.0 **** 0.0
31858 H 38.732 4.34 17.993 H 0.0 **** 0.0
31859 H 37.939 2.854 17.417 H 0.0 **** 0.0
31860 H 36.992 4.348 17.617 H 0.0 **** 0.0
31861 C 57.685 44.026 89.929 C 0.0 **** 0.0
31862 H 57.521 44.845 90.629 H 0.0 **** 0.0
31863 H 57.775 43.09 90.48 H 0.0 **** 0.0
31864 H 58.601 44.206 89.366 H 0.0 **** 0.0
31865 H 56.842 43.962 89.24 H 0.0 **** 0.0
31866 C 76.523 47.093 63.64 C 0.0 **** 0.0
31867 H 76.028 46.94 64.599 H 0.0 **** 0.0
31868 H 76.67 48.16 63.474 H 0.0 **** 0.0
31869 H 75.903 46.683 62.843 H 0.0 **** 0.0
31870 H 77.489 46.589 63.645 H 0.0 **** 0.0
31871 C 24.578 66.468 30.031 C 0.0 **** 0.0
31872 H 23.797 66.24 29.305 H 0.0 **** 0.0
31873 H 24.205 67.201 30.747 H 0.0 **** 0.0
31874 H 25.447 66.874 29.514 H 0.0 **** 0.0
31875 H 24.861 65.556 30.558 H 0.0 **** 0.0
31876 C 66.601 98.381 63.129 C 0.0 **** 0.0
31877 H 65.798 98.994 62.72 H 0.0 **** 0.0
31878 H 66.174 97.584 63.739 H 0.0 **** 0.0
31879 H 67.254 99.0 63.743 H 0.0 **** 0.0
31880 H 67.176 97.945 62.312 H 0.0 **** 0.0
31881 C 37.002 64.972 80.928 C 0.0 **** 0.0
31882 H 36.892 64.032 81.47 H 0.0 **** 0.0
31883 H 36.28 65.006 80.112 H 0.0 **** 0.0
31884 H 38.012 65.043 80.525 H 0.0 **** 0.0
31885 H 36.822 65.805 81.608 H 0.0 **** 0.0
31886 C 31.292 39.14 61.421 C 0.0 **** 0.0
31887 H 31.433 39.27 62.494 H 0.0 **** 0.0
31888 H 31.932 38.332 61.066 H 0.0 **** 0.0
31889 H 31.554 40.064 60.907 H 0.0 **** 0.0
31890 H 30.25 38.894 61.219 H 0.0 **** 0.0
31891 C 82.515 76.869 57.971 C 0.0 **** 0.0
31892 H 82.525 77.724 58.648 H 0.0 **** 0.0
31893 H 81.954 77.124 57.072 H 0.0 **** 0.0
31894 H 82.043 76.02 58.466 H 0.0 **** 0.0
31895 H 83.538 76.609 57.7 H 0.0 **** 0.0
31896 C 33.145 58.219 97.454 C 0.0 **** 0.0
31897 H 33.699 58.393 98.376 H 0.0 **** 0.0
31898 H 33.62 57.415 96.891 H 0.0 **** 0.0
31899 H 33.141 59.129 96.855 H 0.0 **** 0.0
31900 H 32.119 57.938 97.694 H 0.0 **** 0.0
31901 C 82.844 28.241 16.277 C 0.0 **** 0.0
31902 H 83.817 27.933 15.896 H 0.0 **** 0.0
31903 H 82.779 29.329 16.27 H 0.0 **** 0.0
31904 H 82.721 27.877 17.297 H 0.0 **** 0.0
31905 H 82.058 27.825 15.646 H 0.0 **** 0.0
31906 C 87.611 32.143 93.021 C 0.0 **** 0.0
31907 H 87.461 33.148 93.414 H 0.0 **** 0.0
31908 H 88.474 31.688 93.508 H 0.0 **** 0.0
31909 H 87.787 32.196 91.946 H 0.0 **** 0.0
31910 H 86.724 31.541 93.215 H 0.0 **** 0.0
31911 C 21.216 81.082 10.12 C 0.0 **** 0.0
31912 H 22.229 81.045 10.521 H 0.0 **** 0.0
31913 H 20.553 80.494 10.755 H 0.0 **** 0.0
31914 H 21.21 80.674 9.11 H 0.0 **** 0.0
31915 H 20.873 82.117 10.096 H 0.0 **** 0.0
31916 C 55.111 88.471 81.743 C 0.0 **** 0.0
31917 H 55.141 89.037 82.675 H 0.0 **** 0.0
31918 H 54.286 87.759 81.778 H 0.0 **** 0.0
31919 H 56.05 87.934 81.615 H 0.0 **** 0.0
31920 H 54.966 89.155 80.907 H 0.0 **** 0.0
31921 C 1.359 60.205 19.297 C 0.0 **** 0.0
31922 H 1.368 60.389 18.222 H 0.0 **** 0.0
31923 H 1.873 59.267 19.508 H 0.0 **** 0.0
31924 H 0.328 60.142 19.646 H 0.0 **** 0.0
31925 H 1.867 61.022 19.809 H 0.0 **** 0.0
31926 C 26.049 65.487 14.447 C 0.0 **** 0.0
31927 H 25.216 65.861 15.043 H 0.0 **** 0.0
31928 H 26.867 66.207 14.475 H 0.0 **** 0.0
31929 H 25.723 65.348 13.416 H 0.0 **** 0.0
31930 H 26.388 64.534 14.853 H 0.0 **** 0.0
31931 C 63.934 79.341 23.1 C 0.0 **** 0.0
31932 H 63.996 80.418 23.26 H 0.0 **** 0.0
31933 H 63.936 78.831 24.064 H 0.0 **** 0.0
31934 H 64.79 79.012 22.512 H 0.0 **** 0.0
31935 H 63.013 79.106 22.566 H 0.0 **** 0.0
31936 C 53.944 66.547 29.183 C 0.0 **** 0.0
31937 H 54.523 66.018 28.426 H 0.0 **** 0.0
31938 H 54.504 67.419 29.524 H 0.0 **** 0.0
31939 H 53.757 65.883 30.027 H 0.0 **** 0.0
31940 H 52.995 66.869 28.756 H 0.0 **** 0.0
31941 C 5.785 22.156 61.743 C 0.0 **** 0.0
31942 H 5.935 22.877 60.939 H 0.0 **** 0.0
31943 H 5.1 22.574 62.481 H 0.0 **** 0.0
31944 H 6.742 21.937 62.217 H 0.0 **** 0.0
31945 H 5.364 21.239 61.333 H 0.0 **** 0.0
31946 C 88.783 20.854 40.466 C 0.0 **** 0.0
31947 H 88.784 19.801 40.185 H 0.0 **** 0.0
31948 H 88.05 21.39 39.863 H 0.0 **** 0.0
31949 H 89.773 21.276 40.295 H 0.0 **** 0.0
31950 H 88.525 20.948 41.521 H 0.0 **** 0.0
31951 C 58.066 28.644 71.89 C 0.0 **** 0.0
31952 H 57.124 28.902 72.374 H 0.0 **** 0.0
31953 H 57.912 28.562 70.814 H 0.0 **** 0.0
31954 H 58.425 27.691 72.28 H 0.0 **** 0.0
31955 H 58.803 29.421 72.094 H 0.0 **** 0.0
31956 C 93.599 13.159 34.259 C 0.0 **** 0.0
31957 H 94.528 12.675 33.956 H 0.0 **** 0.0
31958 H 93.594 13.292 35.341 H 0.0 **** 0.0
31959 H 92.753 12.538 33.964 H 0.0 **** 0.0
31960 H 93.522 14.132 33.773 H 0.0 **** 0.0
31961 C 48.338 30.321 51.303 C 0.0 **** 0.0
31962 H 49.111 29.581 51.51 H 0.0 **** 0.0
31963 H 48.74 31.321 51.466 H 0.0 **** 0.0
31964 H 47.49 30.156 51.968 H 0.0 **** 0.0
31965 H 48.011 30.225 50.268 H 0.0 **** 0.0
31966 C 58.229 56.655 34.972 C 0.0 **** 0.0
31967 H 59.257 56.925 34.728 H 0.0 **** 0.0
31968 H 57.764 56.177 34.11 H 0.0 **** 0.0
31969 H 57.671 57.554 35.235 H 0.0 **** 0.0
31970 H 58.226 55.966 35.816 H 0.0 **** 0.0
31971 C 52.137 37.395 20.421 C 0.0 **** 0.0
31972 H 52.223 37.382 19.334 H 0.0 **** 0.0
31973 H 53.024 37.861 20.85 H 0.0 **** 0.0
31974 H 52.047 36.374 20.79 H 0.0 **** 0.0
31975 H 51.253 37.965 20.708 H 0.0 **** 0.0
31976 C 12.682 50.914 51.288 C 0.0 **** 0.0
31977 H 12.195 50.657 50.347 H 0.0 **** 0.0
31978 H 12.054 51.61 51.844 H 0.0 **** 0.0
31979 H 13.646 51.379 51.082 H 0.0 **** 0.0
31980 H 12.833 50.009 51.877 H 0.0 **** 0.0
31981 C 86.683 27.304 70.891 C 0.0 **** 0.0
31982 H 86.78 27.467 69.818 H 0.0 **** 0.0
31983 H 87.674 27.203 71.334 H 0.0 **** 0.0
31984 H 86.11 26.394 71.07 H 0.0 **** 0.0
31985 H 86.168 28.152 71.342 H 0.0 **** 0.0
31986 C 92.93 33.429 62.01 C 0.0 **** 0.0
31987 H 93.663 34.183 61.724 H 0.0 **** 0.0
31988 H 93.366 32.436 61.89 H 0.0 **** 0.0
31989 H 92.05 33.519 61.374 H 0.0 **** 0.0
31990 H 92.644 33.577 63.051 H 0.0 **** 0.0
31991 C 19.49 53.282 70.144 C 0.0 **** 0.0
31992 H 18.947 53.393 69.205 H 0.0 **** 0.0
31993 H 19.631 52.222 70.359 H 0.0 **** 0.0
31994 H 18.919 53.743 70.95 H 0.0 **** 0.0
31995 H 20.462 53.769 70.061 H 0.0 **** 0.0
31996 C 4.636 26.639 5.724 C 0.0 **** 0.0
31997 H 4.061 26.573 4.801 H 0.0 **** 0.0
31998 H 5.048 25.659 5.966 H 0.0 **** 0.0
31999 H 3.985 26.969 6.534 H 0.0 **** 0.0
32000 H 5.448 27.354 5.597 H 0.0 **** 0.0
32001 C 30.543 39.276 65.336 C 0.0 **** 0.0
32002 H 29.944 39.945 64.719 H 0.0 **** 0.0
32003 H 31.407 38.933 64.767 H 0.0 **** 0.0
32004 H 29.939 38.418 65.633 H 0.0 **** 0.0
32005 H 30.881 39.807 66.226 H 0.0 **** 0.0
32006 C 34.285 10.231 11.147 C 0.0 **** 0.0
32007 H 34.491 10.44 12.196 H 0.0 **** 0.0
32008 H 33.26 10.52 10.914 H 0.0 **** 0.0
32009 H 34.415 9.166 10.956 H 0.0 **** 0.0
32010 H 34.974 10.8 10.522 H 0.0 **** 0.0
32011 C 21.497 62.636 18.423 C 0.0 **** 0.0
32012 H 21.425 61.726 17.829 H 0.0 **** 0.0
32013 H 20.521 62.87 18.849 H 0.0 **** 0.0
32014 H 21.823 63.46 17.787 H 0.0 **** 0.0
32015 H 22.218 62.489 19.226 H 0.0 **** 0.0
32016 C 26.395 1.629 68.946 C 0.0 **** 0.0
32017 H 26.252 1.505 70.02 H 0.0 **** 0.0
32018 H 27.198 0.974 68.608 H 0.0 **** 0.0
32019 H 26.656 2.665 68.732 H 0.0 **** 0.0
32020 H 25.472 1.372 68.425 H 0.0 **** 0.0
32021 C 79.166 38.009 74.349 C 0.0 **** 0.0
32022 H 79.631 38.455 75.228 H 0.0 **** 0.0
32023 H 78.256 38.556 74.102 H 0.0 **** 0.0
32024 H 78.919 36.968 74.558 H 0.0 **** 0.0
32025 H 79.858 38.056 73.508 H 0.0 **** 0.0
32026 C 21.599 69.834 81.384 C 0.0 **** 0.0
32027 H 21.435 69.69 80.316 H 0.0 **** 0.0
32028 H 21.057 69.068 81.94 H 0.0 **** 0.0
32029 H 21.239 70.82 81.677 H 0.0 **** 0.0
32030 H 22.664 69.756 81.601 H 0.0 **** 0.0
32031 C 21.4 20.278 68.467 C 0.0 **** 0.0
32032 H 21.356 20.526 69.527 H 0.0 **** 0.0
32033 H 21.183 21.168 67.876 H 0.0 **** 0.0
32034 H 20.664 19.505 68.244 H 0.0 **** 0.0
32035 H 22.396 19.912 68.22 H 0.0 **** 0.0
32036 C 66.885 87.868 81.91 C 0.0 **** 0.0
32037 H 66.372 87.04 82.396 H 0.0 **** 0.0
32038 H 66.154 88.512 81.42 H 0.0 **** 0.0
32039 H 67.581 87.478 81.167 H 0.0 **** 0.0
32040 H 67.435 88.443 82.655 H 0.0 **** 0.0
32041 C 85.463 58.02 7.277 C 0.0 **** 0.0
32042 H 85.818 57.02 7.528 H 0.0 **** 0.0
32043 H 85.331 58.097 6.197 H 0.0 **** 0.0
32044 H 86.194 58.758 7.607 H 0.0 **** 0.0
32045 H 84.511 58.203 7.774 H 0.0 **** 0.0
32046 C 4.778 89.078 85.065 C 0.0 **** 0.0
32047 H 4.11 89.054 85.926 H 0.0 **** 0.0
32048 H 4.261 88.678 84.193 H 0.0 **** 0.0
32049 H 5.661 88.474 85.274 H 0.0 **** 0.0
32050 H 5.081 90.107 84.869 H 0.0 **** 0.0
32051 C 54.333 47.378 95.903 C 0.0 **** 0.0
32052 H 55.291 47.12 95.454 H 0.0 **** 0.0
32053 H 53.982 46.547 96.515 H 0.0 **** 0.0
32054 H 53.606 47.584 95.117 H 0.0 **** 0.0
32055 H 54.452 48.264 96.528 H 0.0 **** 0.0
32056 C 49.157 56.336 59.884 C 0.0 **** 0.0
32057 H 49.246 55.31 59.529 H 0.0 **** 0.0
32058 H 50.103 56.857 59.732 H 0.0 **** 0.0
32059 H 48.911 56.333 60.946 H 0.0 **** 0.0
32060 H 48.368 56.846 59.331 H 0.0 **** 0.0
32061 C 81.094 4.612 90.578 C 0.0 **** 0.0
32062 H 81.507 4.856 91.556 H 0.0 **** 0.0
32063 H 80.244 3.941 90.7 H 0.0 **** 0.0
32064 H 81.858 4.125 89.972 H 0.0 **** 0.0
32065 H 80.767 5.527 90.083 H 0.0 **** 0.0
32066 C 25.949 84.574 77.554 C 0.0 **** 0.0
32067 H 25.071 84.201 77.027 H 0.0 **** 0.0
32068 H 25.682 84.804 78.586 H 0.0 **** 0.0
32069 H 26.311 85.477 77.062 H 0.0 **** 0.0
32070 H 26.731 83.815 77.541 H 0.0 **** 0.0
32071 C 55.091 58.444 13.495 C 0.0 **** 0.0
32072 H 55.181 58.242 14.562 H 0.0 **** 0.0
32073 H 55.16 57.508 12.941 H 0.0 **** 0.0
32074 H 55.895 59.111 13.183 H 0.0 **** 0.0
32075 H 54.129 58.916 13.294 H 0.0 **** 0.0
32076 C 6.776 85.495 62.275 C 0.0 **** 0.0
32077 H 7.463 85.009 61.582 H 0.0 **** 0.0
32078 H 6.38 84.756 62.971 H 0.0 **** 0.0
32079 H 5.956 85.946 61.717 H 0.0 **** 0.0
32080 H 7.307 86.269 62.83 H 0.0 **** 0.0
32081 C 19.426 83.757 26.184 C 0.0 **** 0.0
32082 H 19.488 83.676 27.269 H 0.0 **** 0.0
32083 H 20.25 84.37 25.818 H 0.0 **** 0.0
32084 H 18.478 84.219 25.908 H 0.0 **** 0.0
32085 H 19.488 82.763 25.742 H 0.0 **** 0.0
32086 C 42.369 6.742 73.74 C 0.0 **** 0.0
32087 H 42.048 5.707 73.621 H 0.0 **** 0.0
32088 H 43.329 6.767 74.255 H 0.0 **** 0.0
32089 H 41.627 7.286 74.325 H 0.0 **** 0.0
32090 H 42.47 7.206 72.759 H 0.0 **** 0.0
32091 C 56.048 16.381 22.102 C 0.0 **** 0.0
32092 H 55.807 16.385 21.039 H 0.0 **** 0.0
32093 H 56.473 15.415 22.374 H 0.0 **** 0.0
32094 H 55.141 16.555 22.681 H 0.0 **** 0.0
32095 H 56.771 17.169 22.313 H 0.0 **** 0.0
32096 C 42.375 70.158 42.334 C 0.0 **** 0.0
32097 H 42.445 70.68 43.288 H 0.0 **** 0.0
32098 H 41.904 69.187 42.486 H 0.0 **** 0.0
32099 H 43.375 70.018 41.923 H 0.0 **** 0.0
32100 H 41.777 70.748 41.64 H 0.0 **** 0.0
32101 C 21.226 64.922 30.785 C 0.0 **** 0.0
32102 H 22.3 64.89 30.972 H 0.0 **** 0.0
32103 H 21.041 64.821 29.715 H 0.0 **** 0.0
32104 H 20.825 65.873 31.135 H 0.0 **** 0.0
32105 H 20.74 64.105 31.318 H 0.0 **** 0.0
32106 C 16.099 41.779 6.798 C 0.0 **** 0.0
32107 H 16.411 40.786 7.121 H 0.0 **** 0.0
32108 H 15.071 41.738 6.439 H 0.0 **** 0.0
32109 H 16.752 42.121 5.995 H 0.0 **** 0.0
32110 H 16.163 42.471 7.638 H 0.0 **** 0.0
32111 C 65.703 45.198 36.058 C 0.0 **** 0.0
32112 H 65.477 45.323 37.117 H 0.0 **** 0.0
32113 H 66.285 44.288 35.916 H 0.0 **** 0.0
32114 H 66.276 46.055 35.706 H 0.0 **** 0.0
32115 H 64.772 45.127 35.495 H 0.0 **** 0.0
32116 C 37.206 59.948 94.556 C 0.0 **** 0.0
32117 H 37.047 59.306 93.689 H 0.0 **** 0.0
32118 H 36.242 60.222 94.986 H 0.0 **** 0.0
32119 H 37.736 60.849 94.248 H 0.0 **** 0.0
32120 H 37.798 59.414 95.299 H 0.0 **** 0.0
32121 C 40.785 93.159 97.487 C 0.0 **** 0.0
32122 H 41.387 92.815 96.645 H 0.0 **** 0.0
32123 H 41.355 93.885 98.067 H 0.0 **** 0.0
32124 H 40.527 92.31 98.12 H 0.0 **** 0.0
32125 H 39.873 93.625 97.115 H 0.0 **** 0.0
32126 C 69.565 26.227 18.519 C 0.0 **** 0.0
32127 H 69.257 25.804 19.475 H 0.0 **** 0.0
32128 H 68.705 26.685 18.031 H 0.0 **** 0.0
32129 H 69.965 25.436 17.884 H 0.0 **** 0.0
32130 H 70.333 26.982 18.686 H 0.0 **** 0.0
32131 C 87.163 80.448 89.244 C 0.0 **** 0.0
32132 H 87.772 80.394 88.342 H 0.0 **** 0.0
32133 H 86.231 80.968 89.023 H 0.0 **** 0.0
32134 H 87.708 80.99 90.018 H 0.0 **** 0.0
32135 H 86.943 79.439 89.594 H 0.0 **** 0.0
32136 C 25.514 16.353 7.31 C 0.0 **** 0.0
32137 H 25.914 16.936 6.481 H 0.0 **** 0.0
32138 H 25.899 16.748 8.251 H 0.0 **** 0.0
32139 H 25.818 15.312 7.201 H 0.0 **** 0.0
32140 H 24.426 16.416 7.307 H 0.0 **** 0.0
32141 C 35.446 27.604 65.014 C 0.0 **** 0.0
32142 H 36.22 27.596 65.78 H 0.0 **** 0.0
32143 H 35.47 26.663 64.463 H 0.0 **** 0.0
32144 H 35.623 28.432 64.327 H 0.0 **** 0.0
32145 H 34.47 27.725 65.484 H 0.0 **** 0.0
32146 C 3.647 96.424 68.43 C 0.0 **** 0.0
32147 H 3.683 97.451 68.068 H 0.0 **** 0.0
32148 H 4.042 95.755 67.664 H 0.0 **** 0.0
32149 H 2.615 96.153 68.652 H 0.0 **** 0.0
32150 H 4.249 96.336 69.335 H 0.0 **** 0.0
32151 C 78.859 73.623 65.292 C 0.0 **** 0.0
32152 H 78.796 73.296 66.33 H 0.0 **** 0.0
32153 H 78.872 74.712 65.254 H 0.0 **** 0.0
32154 H 77.995 73.25 64.741 H 0.0 **** 0.0
32155 H 79.772 73.231 64.844 H 0.0 **** 0.0
32156 C 65.007 62.893 25.807 C 0.0 **** 0.0
32157 H 65.069 62.01 26.443 H 0.0 **** 0.0
32158 H 65.29 63.775 26.382 H 0.0 **** 0.0
32159 H 63.986 63.008 25.443 H 0.0 **** 0.0
32160 H 65.684 62.778 24.96 H 0.0 **** 0.0
32161 C 53.14 98.333 68.062 C 0.0 **** 0.0
32162 H 53.908 98.827 68.658 H 0.0 **** 0.0
32163 H 52.175 98.432 68.559 H 0.0 **** 0.0
32164 H 53.387 97.277 67.955 H 0.0 **** 0.0
32165 H 53.091 98.796 67.077 H 0.0 **** 0.0
32166 C 63.282 85.838 73.937 C 0.0 **** 0.0
32167 H 63.084 86.454 73.059 H 0.0 **** 0.0
32168 H 63.361 86.476 74.817 H 0.0 **** 0.0
32169 H 64.216 85.295 73.796 H 0.0 **** 0.0
32170 H 62.466 85.129 74.074 H 0.0 **** 0.0
32171 C 32.301 4.5 25.638 C 0.0 **** 0.0
32172 H 33.126 3.792 25.567 H 0.0 **** 0.0
32173 H 32.361 5.212 24.814 H 0.0 **** 0.0
32174 H 32.361 5.035 26.585 H 0.0 **** 0.0
32175 H 31.355 3.961 25.584 H 0.0 **** 0.0
32176 C 34.14 47.165 72.233 C 0.0 **** 0.0
32177 H 34.992 46.755 72.774 H 0.0 **** 0.0
32178 H 34.475 47.561 71.274 H 0.0 **** 0.0
32179 H 33.688 47.966 72.819 H 0.0 **** 0.0
32180 H 33.405 46.378 72.065 H 0.0 **** 0.0
32181 C 89.198 57.892 93.586 C 0.0 **** 0.0
32182 H 89.167 57.905 92.497 H 0.0 **** 0.0
32183 H 88.213 57.634 93.975 H 0.0 **** 0.0
32184 H 89.487 58.877 93.953 H 0.0 **** 0.0
32185 H 89.926 57.153 93.92 H 0.0 **** 0.0
32186 C 41.769 2.54 55.297 C 0.0 **** 0.0
32187 H 41.933 2.588 56.373 H 0.0 **** 0.0
32188 H 42.371 3.303 54.803 H 0.0 **** 0.0
32189 H 40.714 2.714 55.082 H 0.0 **** 0.0
32190 H 42.056 1.555 54.929 H 0.0 **** 0.0
32191 C 94.761 86.539 17.026 C 0.0 **** 0.0
32192 H 94.341 86.759 16.045 H 0.0 **** 0.0
32193 H 94.908 87.469 17.576 H 0.0 **** 0.0
32194 H 95.719 86.033 16.905 H 0.0 **** 0.0
32195 H 94.077 85.894 17.578 H 0.0 **** 0.0
32196 C 43.663 43.776 9.87 C 0.0 **** 0.0
32197 H 43.592 44.798 10.242 H 0.0 **** 0.0
32198 H 44.329 43.75 9.006 H 0.0 **** 0.0
32199 H 42.673 43.427 9.577 H 0.0 **** 0.0
32200 H 44.059 43.131 10.654 H 0.0 **** 0.0
32201 C 64.405 97.257 9.449 C 0.0 **** 0.0
32202 H 65.115 98.018 9.773 H 0.0 **** 0.0
32203 H 63.389 97.635 9.565 H 0.0 **** 0.0
32204 H 64.532 96.36 10.056 H 0.0 **** 0.0
32205 H 64.586 97.015 8.401 H 0.0 **** 0.0
32206 C 74.545 90.187 71.669 C 0.0 **** 0.0
32207 H 73.751 89.481 71.426 H 0.0 **** 0.0
32208 H 74.647 90.261 72.752 H 0.0 **** 0.0
32209 H 74.298 91.167 71.259 H 0.0 **** 0.0
32210 H 75.484 89.839 71.239 H 0.0 **** 0.0
32211 C 53.707 65.831 43.782 C 0.0 **** 0.0
32212 H 54.724 65.968 43.415 H 0.0 **** 0.0
32213 H 53.108 66.705 43.525 H 0.0 **** 0.0
32214 H 53.726 65.709 44.865 H 0.0 **** 0.0
32215 H 53.272 64.943 43.324 H 0.0 **** 0.0
32216 C 30.865 27.026 3.912 C 0.0 **** 0.0
32217 H 30.171 27.81 4.212 H 0.0 **** 0.0
32218 H 31.808 27.476 3.6 H 0.0 **** 0.0
32219 H 30.439 26.462 3.082 H 0.0 **** 0.0
32220 H 31.042 26.356 4.753 H 0.0 **** 0.0
32221 C 79.082 75.542 84.853 C 0.0 **** 0.0
32222 H 78.912 75.579 85.929 H 0.0 **** 0.0
32223 H 79.172 76.557 84.464 H 0.0 **** 0.0
32224 H 78.243 75.041 84.37 H 0.0 **** 0.0
32225 H 80.0 74.992 84.649 H 0.0 **** 0.0
32226 C 54.575 27.743 32.944 C 0.0 **** 0.0
32227 H 54.999 28.422 32.204 H 0.0 **** 0.0
32228 H 55.339 27.035 33.267 H 0.0 **** 0.0
32229 H 53.74 27.2 32.501 H 0.0 **** 0.0
32230 H 54.223 28.315 33.802 H 0.0 **** 0.0
32231 C 95.542 49.44 34.154 C 0.0 **** 0.0
32232 H 96.407 49.205 33.534 H 0.0 **** 0.0
32233 H 95.098 48.516 34.524 H 0.0 **** 0.0
32234 H 94.808 49.985 33.561 H 0.0 **** 0.0
32235 H 95.857 50.055 34.998 H 0.0 **** 0.0
32236 C 17.227 73.471 75.495 C 0.0 **** 0.0
32237 H 17.97 73.314 74.712 H 0.0 **** 0.0
32238 H 17.732 73.597 76.453 H 0.0 **** 0.0
32239 H 16.563 72.609 75.544 H 0.0 **** 0.0
32240 H 16.646 74.366 75.27 H 0.0 **** 0.0
32241 C 10.922 65.76 73.894 C 0.0 **** 0.0
32242 H 11.275 65.984 74.9 H 0.0 **** 0.0
32243 H 11.774 65.688 73.218 H 0.0 **** 0.0
32244 H 10.257 66.556 73.557 H 0.0 **** 0.0
32245 H 10.382 64.814 73.901 H 0.0 **** 0.0
32246 C 46.282 71.484 42.353 C 0.0 **** 0.0
32247 H 45.332 70.951 42.358 H 0.0 **** 0.0
32248 H 46.127 72.506 42.701 H 0.0 **** 0.0
32249 H 46.683 71.502 41.34 H 0.0 **** 0.0
32250 H 46.986 70.978 43.013 H 0.0 **** 0.0
32251 C 13.241 53.173 34.88 C 0.0 **** 0.0
32252 H 13.578 53.659 35.796 H 0.0 **** 0.0
32253 H 12.153 53.202 34.833 H 0.0 **** 0.0
32254 H 13.579 52.137 34.874 H 0.0 **** 0.0
32255 H 13.657 53.696 34.019 H 0.0 **** 0.0
32256 C 74.878 54.589 50.959 C 0.0 **** 0.0
32257 H 75.201 54.076 50.053 H 0.0 **** 0.0
32258 H 75.69 54.587 51.686 H 0.0 **** 0.0
32259 H 74.013 54.076 51.378 H 0.0 **** 0.0
32260 H 74.609 55.617 50.717 H 0.0 **** 0.0
32261 C 3.498 8.464 72.94 C 0.0 **** 0.0
32262 H 2.662 9.105 73.218 H 0.0 **** 0.0
32263 H 3.424 8.21 71.882 H 0.0 **** 0.0
32264 H 3.47 7.552 73.536 H 0.0 **** 0.0
32265 H 4.435 8.99 73.123 H 0.0 **** 0.0
32266 C 11.642 29.65 45.624 C 0.0 **** 0.0
32267 H 11.54 29.298 44.597 H 0.0 **** 0.0
32268 H 11.379 30.707 45.673 H 0.0 **** 0.0
32269 H 12.672 29.515 45.953 H 0.0 **** 0.0
32270 H 10.976 29.079 46.271 H 0.0 **** 0.0
32271 C 38.424 17.417 24.191 C 0.0 **** 0.0
32272 H 38.416 17.416 25.281 H 0.0 **** 0.0
32273 H 38.947 16.53 23.831 H 0.0 **** 0.0
32274 H 38.934 18.311 23.833 H 0.0 **** 0.0
32275 H 37.399 17.41 23.821 H 0.0 **** 0.0
32276 C 6.848 61.303 54.753 C 0.0 **** 0.0
32277 H 7.623 60.545 54.637 H 0.0 **** 0.0
32278 H 7.189 62.068 55.45 H 0.0 **** 0.0
32279 H 5.941 60.838 55.14 H 0.0 **** 0.0
32280 H 6.638 61.759 53.785 H 0.0 **** 0.0
32281 C 78.976 26.545 9.686 C 0.0 **** 0.0
32282 H 79.178 26.45 8.619 H 0.0 **** 0.0
32283 H 78.555 27.53 9.889 H 0.0 **** 0.0
32284 H 79.905 26.425 10.244 H 0.0 **** 0.0
32285 H 78.267 25.776 9.992 H 0.0 **** 0.0
32286 C 27.698 48.569 7.93 C 0.0 **** 0.0
32287 H 27.706 48.555 6.841 H 0.0 **** 0.0
32288 H 28.676 48.264 8.304 H 0.0 **** 0.0
32289 H 26.938 47.879 8.297 H 0.0 **** 0.0
32290 H 27.473 49.576 8.28 H 0.0 **** 0.0
32291 C 6.621 17.955 76.966 C 0.0 **** 0.0
32292 H 6.748 18.287 75.936 H 0.0 **** 0.0
32293 H 6.001 17.058 76.984 H 0.0 **** 0.0
32294 H 6.139 18.742 77.545 H 0.0 **** 0.0
32295 H 7.597 17.731 77.398 H 0.0 **** 0.0
32296 C 48.456 7.62 6.792 C 0.0 **** 0.0
32297 H 48.432 6.619 7.224 H 0.0 **** 0.0
32298 H 48.834 8.325 7.532 H 0.0 **** 0.0
32299 H 47.448 7.911 6.495 H 0.0 **** 0.0
32300 H 49.108 7.623 5.919 H 0.0 **** 0.0
32301 C 42.26 3.82 88.469 C 0.0 **** 0.0
32302 H 42.06 3.404 87.482 H 0.0 **** 0.0
32303 H 41.87 4.837 88.521 H 0.0 **** 0.0
32304 H 43.335 3.833 88.647 H 0.0 **** 0.0
32305 H 41.774 3.205 89.227 H 0.0 **** 0.0
32306 C 3.543 40.125 97.793 C 0.0 **** 0.0
32307 H 3.53 40.226 96.708 H 0.0 **** 0.0
32308 H 2.87 40.86 98.234 H 0.0 **** 0.0
32309 H 4.556 40.292 98.16 H 0.0 **** 0.0
32310 H 3.218 39.122 98.068 H 0.0 **** 0.0
32311 C 35.193 75.74 28.941 C 0.0 **** 0.0
32312 H 36.233 75.905 29.221 H 0.0 **** 0.0
32313 H 34.548 75.963 29.791 H 0.0 **** 0.0
32314 H 35.056 74.701 28.644 H 0.0 **** 0.0
32315 H 34.934 76.393 28.107 H 0.0 **** 0.0
32316 C 54.172 74.417 47.384 C 0.0 **** 0.0
32317 H 54.909 74.269 46.595 H 0.0 **** 0.0
32318 H 53.277 73.837 47.158 H 0.0 **** 0.0
32319 H 53.914 75.474 47.446 H 0.0 **** 0.0
32320 H 54.588 74.088 48.336 H 0.0 **** 0.0
32321 C 19.327 86.917 19.757 C 0.0 **** 0.0
32322 H 20.173 87.378 19.247 H 0.0 **** 0.0
32323 H 19.534 86.862 20.826 H 0.0 **** 0.0
32324 H 19.17 85.912 19.365 H 0.0 **** 0.0
32325 H 18.432 87.516 19.59 H 0.0 **** 0.0
32326 C 76.718 51.877 17.541 C 0.0 **** 0.0
32327 H 77.806 51.87 17.467 H 0.0 **** 0.0
32328 H 76.348 50.852 17.546 H 0.0 **** 0.0
32329 H 76.3 52.411 16.688 H 0.0 **** 0.0
32330 H 76.42 52.376 18.463 H 0.0 **** 0.0
32331 C 16.282 66.484 25.474 C 0.0 **** 0.0
32332 H 15.456 66.908 24.902 H 0.0 **** 0.0
32333 H 15.901 65.716 26.147 H 0.0 **** 0.0
32334 H 16.763 67.271 26.055 H 0.0 **** 0.0
32335 H 17.007 66.042 24.791 H 0.0 **** 0.0
32336 C 30.053 14.862 40.89 C 0.0 **** 0.0
32337 H 29.9 14.898 41.969 H 0.0 **** 0.0
32338 H 30.456 13.887 40.614 H 0.0 **** 0.0
32339 H 30.754 15.642 40.597 H 0.0 **** 0.0
32340 H 29.101 15.019 40.383 H 0.0 **** 0.0
32341 C 48.013 35.536 10.667 C 0.0 **** 0.0
32342 H 47.641 35.008 11.546 H 0.0 **** 0.0
32343 H 48.748 34.914 10.155 H 0.0 **** 0.0
32344 H 48.481 36.47 10.977 H 0.0 **** 0.0
32345 H 47.184 35.749 9.994 H 0.0 **** 0.0
32346 C 7.61 80.089 76.189 C 0.0 **** 0.0
32347 H 7.964 80.992 75.693 H 0.0 **** 0.0
32348 H 6.545 80.185 76.402 H 0.0 **** 0.0
32349 H 8.157 79.95 77.122 H 0.0 **** 0.0
32350 H 7.775 79.229 75.54 H 0.0 **** 0.0
32351 C 71.589 91.198 97.839 C 0.0 **** 0.0
32352 H 71.977 91.596 96.902 H 0.0 **** 0.0
32353 H 72.268 90.434 98.217 H 0.0 **** 0.0
32354 H 70.606 90.759 97.668 H 0.0 **** 0.0
32355 H 71.505 92.004 98.569 H 0.0 **** 0.0
32356 C 58.375 84.754 34.562 C 0.0 **** 0.0
32357 H 58.386 85.617 35.229 H 0.0 **** 0.0
32358 H 58.978 84.969 33.68 H 0.0 **** 0.0
32359 H 57.349 84.543 34.259 H 0.0 **** 0.0
32360 H 58.786 83.888 35.082 H 0.0 **** 0.0
32361 C 88.509 6.055 88.996 C 0.0 **** 0.0
32362 H 88.897 6.657 88.174 H 0.0 **** 0.0
32363 H 87.485 6.357 89.215 H 0.0 **** 0.0
32364 H 89.129 6.204 89.879 H 0.0 **** 0.0
32365 H 88.525 5.002 88.714 H 0.0 **** 0.0
32366 C 2.628 87.59 95.528 C 0.0 **** 0.0
32367 H 2.319 88.602 95.267 H 0.0 **** 0.0
32368 H 1.809 86.898 95.332 H 0.0 **** 0.0
32369 H 2.892 87.552 96.585 H 0.0 **** 0.0
32370 H 3.493 87.308 94.927 H 0.0 **** 0.0
32371 C 28.915 91.908 80.014 C 0.0 **** 0.0
32372 H 28.69 92.042 81.072 H 0.0 **** 0.0
32373 H 29.485 90.989 79.878 H 0.0 **** 0.0
32374 H 29.5 92.755 79.657 H 0.0 **** 0.0
32375 H 27.984 91.845 79.45 H 0.0 **** 0.0
32376 C 2.495 15.657 43.654 C 0.0 **** 0.0
32377 H 2.829 15.868 42.638 H 0.0 **** 0.0
32378 H 3.361 15.537 44.304 H 0.0 **** 0.0
32379 H 1.907 14.739 43.658 H 0.0 **** 0.0
32380 H 1.881 16.483 44.013 H 0.0 **** 0.0
32381 C 45.485 54.651 15.839 C 0.0 **** 0.0
32382 H 45.194 54.741 16.886 H 0.0 **** 0.0
32383 H 46.232 53.863 15.737 H 0.0 **** 0.0
32384 H 45.906 55.597 15.497 H 0.0 **** 0.0
32385 H 44.61 54.404 15.239 H 0.0 **** 0.0
32386 C 57.868 44.686 2.821 C 0.0 **** 0.0
32387 H 57.847 45.311 3.714 H 0.0 **** 0.0
32388 H 58.561 43.858 2.974 H 0.0 **** 0.0
32389 H 58.196 45.282 1.969 H 0.0 **** 0.0
32390 H 56.87 44.294 2.628 H 0.0 **** 0.0
32391 C 73.44 22.651 47.789 C 0.0 **** 0.0
32392 H 72.687 23.379 48.09 H 0.0 **** 0.0
32393 H 73.545 21.894 48.567 H 0.0 **** 0.0
32394 H 74.395 23.155 47.642 H 0.0 **** 0.0
32395 H 73.133 22.175 46.857 H 0.0 **** 0.0
32396 C 2.286 84.338 10.421 C 0.0 **** 0.0
32397 H 2.594 84.612 11.43 H 0.0 **** 0.0
32398 H 1.639 85.116 10.015 H 0.0 **** 0.0
32399 H 1.743 83.393 10.451 H 0.0 **** 0.0
32400 H 3.167 84.231 9.788 H 0.0 **** 0.0
32401 C 40.303 46.492 96.949 C 0.0 **** 0.0
32402 H 40.082 46.564 95.884 H 0.0 **** 0.0
32403 H 41.346 46.204 97.084 H 0.0 **** 0.0
32404 H 39.657 45.742 97.405 H 0.0 **** 0.0
32405 H 40.128 47.458 97.423 H 0.0 **** 0.0
32406 C 29.019 22.983 11.78 C 0.0 **** 0.0
32407 H 29.102 23.362 10.761 H 0.0 **** 0.0
32408 H 28.606 23.759 12.424 H 0.0 **** 0.0
32409 H 30.006 22.696 12.142 H 0.0 **** 0.0
32410 H 28.362 22.113 11.791 H 0.0 **** 0.0
32411 C 58.155 95.871 8.224 C 0.0 **** 0.0
32412 H 58.175 95.25 7.328 H 0.0 **** 0.0
32413 H 59.063 96.472 8.27 H 0.0 **** 0.0
32414 H 58.095 95.234 9.106 H 0.0 **** 0.0
32415 H 57.286 96.528 8.19 H 0.0 **** 0.0
32416 C 71.121 37.006 52.627 C 0.0 **** 0.0
32417 H 70.9 37.675 53.458 H 0.0 **** 0.0
32418 H 71.922 36.324 52.913 H 0.0 **** 0.0
32419 H 71.434 37.591 51.762 H 0.0 **** 0.0
32420 H 70.228 36.434 52.374 H 0.0 **** 0.0
32421 C 46.449 33.603 54.084 C 0.0 **** 0.0
32422 H 46.929 33.868 55.026 H 0.0 **** 0.0
32423 H 46.222 32.537 54.079 H 0.0 **** 0.0
32424 H 47.12 33.836 53.257 H 0.0 **** 0.0
32425 H 45.526 34.172 53.975 H 0.0 **** 0.0
32426 C 93.227 16.86 22.293 C 0.0 **** 0.0
32427 H 92.972 17.92 22.33 H 0.0 **** 0.0
32428 H 93.968 16.693 21.511 H 0.0 **** 0.0
32429 H 92.331 16.278 22.077 H 0.0 **** 0.0
32430 H 93.637 16.552 23.255 H 0.0 **** 0.0
32431 C 42.996 61.957 42.884 C 0.0 **** 0.0
32432 H 42.141 61.621 42.297 H 0.0 **** 0.0
32433 H 43.587 61.094 43.19 H 0.0 **** 0.0
32434 H 42.643 62.488 43.768 H 0.0 **** 0.0
32435 H 43.611 62.625 42.28 H 0.0 **** 0.0
32436 C 48.76 45.334 27.982 C 0.0 **** 0.0
32437 H 48.346 45.99 27.216 H 0.0 **** 0.0
32438 H 49.552 45.857 28.519 H 0.0 **** 0.0
32439 H 49.168 44.439 27.512 H 0.0 **** 0.0
32440 H 47.973 45.051 28.681 H 0.0 **** 0.0
32441 C 44.226 72.672 44.667 C 0.0 **** 0.0
32442 H 44.916 73.488 44.455 H 0.0 **** 0.0
32443 H 43.632 72.919 45.547 H 0.0 **** 0.0
32444 H 44.792 71.759 44.855 H 0.0 **** 0.0
32445 H 43.567 72.522 43.812 H 0.0 **** 0.0
32446 C 37.08 92.587 61.597 C 0.0 **** 0.0
32447 H 36.959 91.634 62.112 H 0.0 **** 0.0
32448 H 36.545 92.556 60.647 H 0.0 **** 0.0
32449 H 38.139 92.768 61.413 H 0.0 **** 0.0
32450 H 36.676 93.388 62.216 H 0.0 **** 0.0
32451 C 77.964 8.517 13.983 C 0.0 **** 0.0
32452 H 78.437 7.576 14.266 H 0.0 **** 0.0
32453 H 76.958 8.319 13.612 H 0.0 **** 0.0
32454 H 78.552 8.998 13.201 H 0.0 **** 0.0
32455 H 77.909 9.172 14.852 H 0.0 **** 0.0
32456 C 78.784 22.971 11.951 C 0.0 **** 0.0
32457 H 79.162 22.137 11.359 H 0.0 **** 0.0
32458 H 78.012 23.495 11.388 H 0.0 **** 0.0
32459 H 79.601 23.657 12.174 H 0.0 **** 0.0
32460 H 78.362 22.594 12.882 H 0.0 **** 0.0
32461 C 44.567 86.12 75.405 C 0.0 **** 0.0
32462 H 44.647 86.471 74.377 H 0.0 **** 0.0
32463 H 44.313 86.957 76.056 H 0.0 **** 0.0
32464 H 45.519 85.692 75.718 H 0.0 **** 0.0
32465 H 43.788 85.36 75.47 H 0.0 **** 0.0
32466 C 3.956 18.377 40.151 C 0.0 **** 0.0
32467 H 4.019 18.988 41.051 H 0.0 **** 0.0
32468 H 3.584 17.385 40.411 H 0.0 **** 0.0
32469 H 4.945 18.288 39.703 H 0.0 **** 0.0
32470 H 3.275 18.846 39.441 H 0.0 **** 0.0
32471 C 18.047 47.262 79.162 C 0.0 **** 0.0
32472 H 18.168 47.439 80.231 H 0.0 **** 0.0
32473 H 19.028 47.185 78.694 H 0.0 **** 0.0
32474 H 17.496 48.091 78.718 H 0.0 **** 0.0
32475 H 17.495 46.335 79.008 H 0.0 **** 0.0
32476 C 92.135 51.161 7.042 C 0.0 **** 0.0
32477 H 91.612 50.557 6.3 H 0.0 **** 0.0
32478 H 92.073 50.673 8.016 H 0.0 **** 0.0
32479 H 91.673 52.146 7.099 H 0.0 **** 0.0
32480 H 93.181 51.266 6.753 H 0.0 **** 0.0
32481 C 93.903 96.051 73.148 C 0.0 **** 0.0
32482 H 93.93 96.107 72.06 H 0.0 **** 0.0
32483 H 93.253 96.836 73.536 H 0.0 **** 0.0
32484 H 94.91 96.184 73.543 H 0.0 **** 0.0
32485 H 93.519 95.077 73.452 H 0.0 **** 0.0
32486 C 82.873 66.216 54.246 C 0.0 **** 0.0
32487 H 82.726 65.212 54.643 H 0.0 **** 0.0
32488 H 83.415 66.819 54.974 H 0.0 **** 0.0
32489 H 81.904 66.672 54.043 H 0.0 **** 0.0
32490 H 83.448 66.159 53.321 H 0.0 **** 0.0
32491 C 4.329 56.939 48.549 C 0.0 **** 0.0
32492 H 3.345 56.983 49.015 H 0.0 **** 0.0
32493 H 4.273 56.343 47.637 H 0.0 **** 0.0
32494 H 5.038 56.481 49.239 H 0.0 **** 0.0
32495 H 4.661 57.948 48.304 H 0.0 **** 0.0
32496 C 97.228 37.416 56.897 C 0.0 **** 0.0
32497 H 96.643 38.328 57.02 H 0.0 **** 0.0
32498 H 97.231 36.858 57.834 H 0.0 **** 0.0
32499 H 98.251 37.675 56.625 H 0.0 **** 0.0
32500 H 96.786 36.805 56.111 H 0.0 **** 0.0
32501 C 89.308 44.692 76.209 C 0.0 **** 0.0
32502 H 89.392 43.87 76.919 H 0.0 **** 0.0
32503 H 89.626 44.354 75.222 H 0.0 **** 0.0
32504 H 89.942 45.518 76.532 H 0.0 **** 0.0
32505 H 88.272 45.027 76.162 H 0.0 **** 0.0
32506 C 23.982 82.215 69.977 C 0.0 **** 0.0
32507 H 23.413 82.375 69.061 H 0.0 **** 0.0
32508 H 25.047 82.192 69.743 H 0.0 **** 0.0
32509 H 23.688 81.267 70.426 H 0.0 **** 0.0
32510 H 23.78 83.027 70.676 H 0.0 **** 0.0
32511 C 53.535 74.42 71.318 C 0.0 **** 0.0
32512 H 54.383 74.518 71.996 H 0.0 **** 0.0
32513 H 53.894 74.399 70.289 H 0.0 **** 0.0
32514 H 52.863 75.268 71.452 H 0.0 **** 0.0
32515 H 53.001 73.495 71.536 H 0.0 **** 0.0
32516 C 1.551 2.745 77.632 C 0.0 **** 0.0
32517 H 2.128 3.479 77.069 H 0.0 **** 0.0
32518 H 0.709 2.406 77.029 H 0.0 **** 0.0
32519 H 1.182 3.2 78.551 H 0.0 **** 0.0
32520 H 2.188 1.895 77.878 H 0.0 **** 0.0
32521 C 22.517 85.406 67.779 C 0.0 **** 0.0
32522 H 22.686 85.335 68.853 H 0.0 **** 0.0
32523 H 21.615 84.854 67.515 H 0.0 **** 0.0
32524 H 23.37 84.982 67.249 H 0.0 **** 0.0
32525 H 22.399 86.453 67.498 H 0.0 **** 0.0
32526 C 40.122 86.82 45.862 C 0.0 **** 0.0
32527 H 40.416 86.726 44.817 H 0.0 **** 0.0
32528 H 40.948 87.24 46.436 H 0.0 **** 0.0
32529 H 39.868 85.836 46.257 H 0.0 **** 0.0
32530 H 39.255 87.476 45.938 H 0.0 **** 0.0
32531 C 6.61 88.317 93.888 C 0.0 **** 0.0
32532 H 6.002 88.968 93.26 H 0.0 **** 0.0
32533 H 6.432 87.277 93.612 H 0.0 **** 0.0
32534 H 6.341 88.467 94.934 H 0.0 **** 0.0
32535 H 7.664 88.556 93.746 H 0.0 **** 0.0
32536 C 2.152 17.53 14.341 C 0.0 **** 0.0
32537 H 3.046 17.437 13.724 H 0.0 **** 0.0
32538 H 2.304 18.313 15.085 H 0.0 **** 0.0
32539 H 1.959 16.583 14.845 H 0.0 **** 0.0
32540 H 1.301 17.788 13.711 H 0.0 **** 0.0
32541 C 53.762 80.176 53.528 C 0.0 **** 0.0
32542 H 54.71 79.699 53.281 H 0.0 **** 0.0
32543 H 53.911 80.877 54.349 H 0.0 **** 0.0
32544 H 53.039 79.417 53.824 H 0.0 **** 0.0
32545 H 53.388 80.713 52.655 H 0.0 **** 0.0
32546 C 94.608 11.161 88.149 C 0.0 **** 0.0
32547 H 95.217 12.057 88.27 H 0.0 **** 0.0
32548 H 94.38 10.742 89.129 H 0.0 **** 0.0
32549 H 95.154 10.427 87.557 H 0.0 **** 0.0
32550 H 93.68 11.421 87.639 H 0.0 **** 0.0
32551 C 83.509 2.236 60.154 C 0.0 **** 0.0
32552 H 83.787 1.499 59.4 H 0.0 **** 0.0
32553 H 83.269 1.727 61.088 H 0.0 **** 0.0
32554 H 82.639 2.796 59.811 H 0.0 **** 0.0
32555 H 84.341 2.921 60.316 H 0.0 **** 0.0
32556 C 3.268 46.307 43.084 C 0.0 **** 0.0
32557 H 2.369 46.889 42.88 H 0.0 **** 0.0
32558 H 4.068 46.629 42.417 H 0.0 **** 0.0
32559 H 3.06 45.25 42.919 H 0.0 **** 0.0
32560 H 3.573 46.46 44.119 H 0.0 **** 0.0
32561 C 96.959 59.722 43.792 C 0.0 **** 0.0
32562 H 96.749 59.736 44.861 H 0.0 **** 0.0
32563 H 96.535 60.612 43.327 H 0.0 **** 0.0
32564 H 96.516 58.832 43.346 H 0.0 **** 0.0
32565 H 98.038 59.709 43.634 H 0.0 **** 0.0
32566 C 15.13 3.513 8.599 C 0.0 **** 0.0
32567 H 14.996 3.325 9.664 H 0.0 **** 0.0
32568 H 15.441 2.592 8.105 H 0.0 **** 0.0
32569 H 15.894 4.277 8.458 H 0.0 **** 0.0
32570 H 14.189 3.856 8.17 H 0.0 **** 0.0
32571 C 81.197 27.944 1.034 C 0.0 **** 0.0
32572 H 81.31 28.076 2.11 H 0.0 **** 0.0
32573 H 81.834 28.658 0.511 H 0.0 **** 0.0
32574 H 80.156 28.112 0.755 H 0.0 **** 0.0
32575 H 81.486 26.929 0.76 H 0.0 **** 0.0
32576 C 44.581 83.253 41.932 C 0.0 **** 0.0
32577 H 45.514 83.784 42.119 H 0.0 **** 0.0
32578 H 43.892 83.427 42.759 H 0.0 **** 0.0
32579 H 44.782 82.185 41.845 H 0.0 **** 0.0
32580 H 44.136 83.615 41.006 H 0.0 **** 0.0
32581 C 56.654 20.291 83.326 C 0.0 **** 0.0
32582 H 57.451 19.549 83.276 H 0.0 **** 0.0
32583 H 57.043 21.263 83.021 H 0.0 **** 0.0
32584 H 56.28 20.354 84.348 H 0.0 **** 0.0
32585 H 55.843 19.998 82.659 H 0.0 **** 0.0
32586 C 86.876 70.468 47.275 C 0.0 **** 0.0
32587 H 87.003 70.512 46.193 H 0.0 **** 0.0
32588 H 86.844 71.48 47.678 H 0.0 **** 0.0
32589 H 87.713 69.927 47.716 H 0.0 **** 0.0
32590 H 85.945 69.952 47.511 H 0.0 **** 0.0
32591 C 72.579 60.997 40.386 C 0.0 **** 0.0
32592 H 72.77 61.784 41.116 H 0.0 **** 0.0
32593 H 71.736 61.284 39.756 H 0.0 **** 0.0
32594 H 72.345 60.068 40.906 H 0.0 **** 0.0
32595 H 73.464 60.854 39.766 H 0.0 **** 0.0
32596 C 90.792 53.792 56.18 C 0.0 **** 0.0
32597 H 90.234 54.28 55.38 H 0.0 **** 0.0
32598 H 91.855 54.005 56.062 H 0.0 **** 0.0
32599 H 90.629 52.716 56.132 H 0.0 **** 0.0
32600 H 90.449 54.17 57.143 H 0.0 **** 0.0
32601 C 56.833 36.719 65.114 C 0.0 **** 0.0
32602 H 56.127 37.53 65.295 H 0.0 **** 0.0
32603 H 56.4 36.012 64.406 H 0.0 **** 0.0
32604 H 57.047 36.208 66.053 H 0.0 **** 0.0
32605 H 57.757 37.126 64.703 H 0.0 **** 0.0
32606 C 72.316 36.293 86.018 C 0.0 **** 0.0
32607 H 71.591 36.061 85.238 H 0.0 **** 0.0
32608 H 71.799 36.713 86.881 H 0.0 **** 0.0
32609 H 73.038 37.017 85.638 H 0.0 **** 0.0
32610 H 72.836 35.382 86.313 H 0.0 **** 0.0
32611 C 96.861 51.869 4.029 C 0.0 **** 0.0
32612 H 96.613 51.864 2.968 H 0.0 **** 0.0
32613 H 97.808 51.35 4.183 H 0.0 **** 0.0
32614 H 96.075 51.363 4.589 H 0.0 **** 0.0
32615 H 96.95 52.898 4.376 H 0.0 **** 0.0
32616 C 31.963 84.536 76.967 C 0.0 **** 0.0
32617 H 31.806 83.746 76.232 H 0.0 **** 0.0
32618 H 33.033 84.677 77.125 H 0.0 **** 0.0
32619 H 31.49 84.256 77.908 H 0.0 **** 0.0
32620 H 31.525 85.464 76.601 H 0.0 **** 0.0
32621 C 52.175 52.402 65.576 C 0.0 **** 0.0
32622 H 51.677 52.35 64.608 H 0.0 **** 0.0
32623 H 51.73 53.199 66.172 H 0.0 **** 0.0
32624 H 53.236 52.607 65.428 H 0.0 **** 0.0
32625 H 52.059 51.451 66.095 H 0.0 **** 0.0
32626 C 15.235 63.357 84.292 C 0.0 **** 0.0
32627 H 15.677 63.58 85.264 H 0.0 **** 0.0
32628 H 15.488 62.337 84.004 H 0.0 **** 0.0
32629 H 15.624 64.053 83.549 H 0.0 **** 0.0
32630 H 14.151 63.46 84.354 H 0.0 **** 0.0
32631 C 69.296 33.283 32.903 C 0.0 **** 0.0
32632 H 68.973 34.027 33.631 H 0.0 **** 0.0
32633 H 69.445 32.326 33.403 H 0.0 **** 0.0
32634 H 70.233 33.604 32.446 H 0.0 **** 0.0
32635 H 68.534 33.176 32.131 H 0.0 **** 0.0
32636 C 38.45 95.937 9.411 C 0.0 **** 0.0
32637 H 38.784 95.15 8.734 H 0.0 **** 0.0
32638 H 37.74 96.583 8.893 H 0.0 **** 0.0
32639 H 39.308 96.526 9.735 H 0.0 **** 0.0
32640 H 37.968 95.488 10.279 H 0.0 **** 0.0
32641 C 60.463 64.853 88.15 C 0.0 **** 0.0
32642 H 59.675 65.519 87.797 H 0.0 **** 0.0
32643 H 61.421 65.174 87.741 H 0.0 **** 0.0
32644 H 60.251 63.835 87.822 H 0.0 **** 0.0
32645 H 60.503 64.883 89.239 H 0.0 **** 0.0
32646 C 9.044 94.325 95.421 C 0.0 **** 0.0
32647 H 9.445 95.159 95.998 H 0.0 **** 0.0
32648 H 8.345 94.703 94.675 H 0.0 **** 0.0
32649 H 8.527 93.637 96.089 H 0.0 **** 0.0
32650 H 9.861 93.803 94.923 H 0.0 **** 0.0
32651 C 34.784 80.748 87.05 C 0.0 **** 0.0
32652 H 35.382 80.668 86.142 H 0.0 **** 0.0
32653 H 35.382 80.435 87.907 H 0.0 **** 0.0
32654 H 33.906 80.108 86.965 H 0.0 **** 0.0
32655 H 34.468 81.783 87.185 H 0.0 **** 0.0
32656 C 40.338 1.113 76.108 C 0.0 **** 0.0
32657 H 40.424 0.059 76.371 H 0.0 **** 0.0
32658 H 39.763 1.212 75.187 H 0.0 **** 0.0
32659 H 41.334 1.533 75.962 H 0.0 **** 0.0
32660 H 39.832 1.648 76.912 H 0.0 **** 0.0
32661 C 98.312 70.125 94.294 C 0.0 **** 0.0
32662 H 98.418 70.211 93.212 H 0.0 **** 0.0
32663 H 97.288 70.365 94.579 H 0.0 **** 0.0
32664 H 98.997 70.818 94.782 H 0.0 **** 0.0
32665 H 98.546 69.106 94.602 H 0.0 **** 0.0
32666 C 53.639 13.256 88.692 C 0.0 **** 0.0
32667 H 53.672 13.289 87.603 H 0.0 **** 0.0
32668 H 53.469 14.261 89.08 H 0.0 **** 0.0
32669 H 54.587 12.875 89.073 H 0.0 **** 0.0
32670 H 52.829 12.601 89.012 H 0.0 **** 0.0
32671 C 68.369 18.809 3.456 C 0.0 **** 0.0
32672 H 68.511 17.746 3.652 H 0.0 **** 0.0
32673 H 69.295 19.344 3.668 H 0.0 **** 0.0
32674 H 67.573 19.193 4.094 H 0.0 **** 0.0
32675 H 68.097 18.952 2.41 H 0.0 **** 0.0
32676 C 95.5 62.324 84.001 C 0.0 **** 0.0
32677 H 95.187 61.872 83.059 H 0.0 **** 0.0
32678 H 94.628 62.478 84.637 H 0.0 **** 0.0
32679 H 95.978 63.283 83.802 H 0.0 **** 0.0
32680 H 96.205 61.663 84.504 H 0.0 **** 0.0
32681 C 67.073 53.878 10.594 C 0.0 **** 0.0
32682 H 66.605 54.277 9.695 H 0.0 **** 0.0
32683 H 66.813 52.824 10.702 H 0.0 **** 0.0
32684 H 66.719 54.43 11.464 H 0.0 **** 0.0
32685 H 68.156 53.979 10.515 H 0.0 **** 0.0
32686 C 96.011 16.54 19.659 C 0.0 **** 0.0
32687 H 97.032 16.402 20.015 H 0.0 **** 0.0
32688 H 95.599 17.455 20.086 H 0.0 **** 0.0
32689 H 95.402 15.689 19.965 H 0.0 **** 0.0
32690 H 96.012 16.614 18.572 H 0.0 **** 0.0
32691 C 79.044 95.245 60.064 C 0.0 **** 0.0
32692 H 78.928 96.025 59.311 H 0.0 **** 0.0
32693 H 78.827 95.658 61.05 H 0.0 **** 0.0
32694 H 80.067 94.87 60.043 H 0.0 **** 0.0
32695 H 78.353 94.43 59.851 H 0.0 **** 0.0
32696 C 85.1 26.935 78.512 C 0.0 **** 0.0
32697 H 86.171 26.779 78.377 H 0.0 **** 0.0
32698 H 84.932 27.558 79.39 H 0.0 **** 0.0
32699 H 84.607 25.972 78.648 H 0.0 **** 0.0
32700 H 84.692 27.43 77.631 H 0.0 **** 0.0
32701 C 14.798 25.531 25.728 C 0.0 **** 0.0
32702 H 14.911 25.348 24.659 H 0.0 **** 0.0
32703 H 15.611 25.046 26.268 H 0.0 **** 0.0
32704 H 13.844 25.127 26.067 H 0.0 **** 0.0
32705 H 14.826 26.605 25.917 H 0.0 **** 0.0
32706 C 10.475 72.49 97.056 C 0.0 **** 0.0
32707 H 10.824 71.457 97.082 H 0.0 **** 0.0
32708 H 11.267 73.131 96.67 H 0.0 **** 0.0
32709 H 10.209 72.808 98.064 H 0.0 **** 0.0
32710 H 9.601 72.562 96.41 H 0.0 **** 0.0
32711 C 61.215 7.799 22.759 C 0.0 **** 0.0
32712 H 61.837 7.321 23.516 H 0.0 **** 0.0
32713 H 61.658 7.645 21.775 H 0.0 **** 0.0
32714 H 61.148 8.867 22.965 H 0.0 **** 0.0
32715 H 60.217 7.361 22.781 H 0.0 **** 0.0
32716 C 22.055 86.907 81.637 C 0.0 **** 0.0
32717 H 21.775 86.964 82.689 H 0.0 **** 0.0
32718 H 23.088 86.569 81.554 H 0.0 **** 0.0
32719 H 21.957 87.892 81.182 H 0.0 **** 0.0
32720 H 21.399 86.203 81.125 H 0.0 **** 0.0
32721 C 34.167 43.199 24.743 C 0.0 **** 0.0
32722 H 34.302 43.483 25.787 H 0.0 **** 0.0
32723 H 34.923 42.464 24.467 H 0.0 **** 0.0
32724 H 34.27 44.081 24.111 H 0.0 **** 0.0
32725 H 33.175 42.769 24.609 H 0.0 **** 0.0
32726 C 81.681 3.351 5.442 C 0.0 **** 0.0
32727 H 82.656 3.837 5.488 H 0.0 **** 0.0
32728 H 81.431 3.137 4.402 H 0.0 **** 0.0
32729 H 80.926 4.011 5.869 H 0.0 **** 0.0
32730 H 81.712 2.42 6.007 H 0.0 **** 0.0
32731 C 37.403 55.753 83.373 C 0.0 **** 0.0
32732 H 36.745 56.12 84.161 H 0.0 **** 0.0
32733 H 36.98 54.847 82.94 H 0.0 **** 0.0
32734 H 38.384 55.532 83.794 H 0.0 **** 0.0
32735 H 37.502 56.515 82.6 H 0.0 **** 0.0
32736 C 4.509 94.261 72.165 C 0.0 **** 0.0
32737 H 3.527 93.806 72.031 H 0.0 **** 0.0
32738 H 4.913 93.975 73.136 H 0.0 **** 0.0
32739 H 4.415 95.346 72.115 H 0.0 **** 0.0
32740 H 5.178 93.918 71.376 H 0.0 **** 0.0
32741 C 40.261 66.921 42.305 C 0.0 **** 0.0
32742 H 40.29 66.854 43.393 H 0.0 **** 0.0
32743 H 39.687 67.8 42.011 H 0.0 **** 0.0
32744 H 39.79 66.026 41.898 H 0.0 **** 0.0
32745 H 41.277 67.005 41.919 H 0.0 **** 0.0
32746 C 13.481 53.428 18.314 C 0.0 **** 0.0
32747 H 13.482 53.099 17.275 H 0.0 **** 0.0
32748 H 13.755 52.593 18.959 H 0.0 **** 0.0
32749 H 12.486 53.784 18.581 H 0.0 **** 0.0
32750 H 14.202 54.236 18.439 H 0.0 **** 0.0
32751 C 52.435 10.314 72.838 C 0.0 **** 0.0
32752 H 53.459 10.11 73.152 H 0.0 **** 0.0
32753 H 52.337 11.369 72.583 H 0.0 **** 0.0
32754 H 51.751 10.071 73.65 H 0.0 **** 0.0
32755 H 52.195 9.705 71.966 H 0.0 **** 0.0
32756 C 59.588 85.265 74.91 C 0.0 **** 0.0
32757 H 59.164 85.325 73.907 H 0.0 **** 0.0
32758 H 58.858 85.624 75.635 H 0.0 **** 0.0
32759 H 60.486 85.881 74.962 H 0.0 **** 0.0
32760 H 59.844 84.229 75.134 H 0.0 **** 0.0
32761 C 76.421 47.821 52.791 C 0.0 **** 0.0
32762 H 77.199 47.431 52.135 H 0.0 **** 0.0
32763 H 75.442 47.543 52.399 H 0.0 **** 0.0
32764 H 76.498 48.908 52.839 H 0.0 **** 0.0
32765 H 76.545 47.404 53.79 H 0.0 **** 0.0
32766 C 73.469 23.472 6.726 C 0.0 **** 0.0
32767 H 73.449 24.491 7.11 H 0.0 **** 0.0
32768 H 72.541 22.965 6.993 H 0.0 **** 0.0
32769 H 74.313 22.936 7.16 H 0.0 **** 0.0
32770 H 73.572 23.495 5.641 H 0.0 **** 0.0
32771 C 47.652 84.756 43.457 C 0.0 **** 0.0
32772 H 48.46 84.241 42.937 H 0.0 **** 0.0
32773 H 48.068 85.369 44.258 H 0.0 **** 0.0
32774 H 46.967 84.021 43.88 H 0.0 **** 0.0
32775 H 47.115 85.392 42.754 H 0.0 **** 0.0
32776 C 28.84 96.067 94.489 C 0.0 **** 0.0
32777 H 29.027 96.028 93.416 H 0.0 **** 0.0
32778 H 28.056 96.796 94.695 H 0.0 **** 0.0
32779 H 29.754 96.361 95.006 H 0.0 **** 0.0
32780 H 28.525 95.084 94.839 H 0.0 **** 0.0
32781 C 17.105 39.932 58.909 C 0.0 **** 0.0
32782 H 17.068 38.957 58.425 H 0.0 **** 0.0
32783 H 18.084 40.073 59.368 H 0.0 **** 0.0
32784 H 16.333 39.986 59.677 H 0.0 **** 0.0
32785 H 16.935 40.713 58.168 H 0.0 **** 0.0
32786 C 44.352 72.691 10.057 C 0.0 **** 0.0
32787 H 43.298 72.911 9.889 H 0.0 **** 0.0
32788 H 44.626 71.789 9.51 H 0.0 **** 0.0
32789 H 44.525 72.538 11.122 H 0.0 **** 0.0
32790 H 44.957 73.527 9.707 H 0.0 **** 0.0
32791 C 86.896 13.098 24.739 C 0.0 **** 0.0
32792 H 87.292 13.801 25.471 H 0.0 **** 0.0
32793 H 87.657 12.354 24.502 H 0.0 **** 0.0
32794 H 86.619 13.636 23.832 H 0.0 **** 0.0
32795 H 86.018 12.601 25.151 H 0.0 **** 0.0
32796 C 18.711 41.864 64.236 C 0.0 **** 0.0
32797 H 18.98 40.908 63.786 H 0.0 **** 0.0
32798 H 17.86 42.289 63.704 H 0.0 **** 0.0
32799 H 19.558 42.547 64.172 H 0.0 **** 0.0
32800 H 18.446 41.711 65.282 H 0.0 **** 0.0
32801 C 46.42 13.867 82.176 C 0.0 **** 0.0
32802 H 46.889 14.673 81.612 H 0.0 **** 0.0
32803 H 46.185 14.216 83.182 H 0.0 **** 0.0
32804 H 47.103 13.02 82.236 H 0.0 **** 0.0
32805 H 45.502 13.558 81.675 H 0.0 **** 0.0
32806 C 93.741 66.683 83.94 C 0.0 **** 0.0
32807 H 94.188 67.595 84.336 H 0.0 **** 0.0
32808 H 92.656 66.78 83.942 H 0.0 **** 0.0
32809 H 94.031 65.836 84.563 H 0.0 **** 0.0
32810 H 94.091 66.52 82.921 H 0.0 **** 0.0
32811 C 80.56 70.045 55.229 C 0.0 **** 0.0
32812 H 80.969 69.828 54.243 H 0.0 **** 0.0
32813 H 80.496 71.125 55.367 H 0.0 **** 0.0
32814 H 81.209 69.619 55.994 H 0.0 **** 0.0
32815 H 79.565 69.608 55.313 H 0.0 **** 0.0
32816 C 75.385 39.695 66.717 C 0.0 **** 0.0
32817 H 75.313 39.586 67.799 H 0.0 **** 0.0
32818 H 74.903 40.624 66.413 H 0.0 **** 0.0
32819 H 74.89 38.853 66.233 H 0.0 **** 0.0
32820 H 76.435 39.717 66.423 H 0.0 **** 0.0
32821 C 80.705 6.027 24.082 C 0.0 **** 0.0
32822 H 81.595 5.944 23.458 H 0.0 **** 0.0
32823 H 80.068 6.826 23.701 H 0.0 **** 0.0
32824 H 81.0 6.254 25.106 H 0.0 **** 0.0
32825 H 80.157 5.085 24.061 H 0.0 **** 0.0
32826 C 1.884 76.558 70.276 C 0.0 **** 0.0
32827 H 2.408 76.837 69.362 H 0.0 **** 0.0
32828 H 2.563 76.647 71.125 H 0.0 **** 0.0
32829 H 1.537 75.528 70.195 H 0.0 **** 0.0
32830 H 1.03 77.219 70.422 H 0.0 **** 0.0
32831 C 66.902 43.706 16.702 C 0.0 **** 0.0
32832 H 66.441 43.529 15.73 H 0.0 **** 0.0
32833 H 67.508 42.843 16.979 H 0.0 **** 0.0
32834 H 66.124 43.859 17.45 H 0.0 **** 0.0
32835 H 67.534 44.592 16.649 H 0.0 **** 0.0
32836 C 58.963 48.066 90.918 C 0.0 **** 0.0
32837 H 59.908 48.068 91.462 H 0.0 **** 0.0
32838 H 58.528 47.067 90.948 H 0.0 **** 0.0
32839 H 59.14 48.354 89.882 H 0.0 **** 0.0
32840 H 58.277 48.776 91.38 H 0.0 **** 0.0
32841 C 79.119 79.509 40.17 C 0.0 **** 0.0
32842 H 78.439 79.113 39.416 H 0.0 **** 0.0
32843 H 78.707 80.43 40.583 H 0.0 **** 0.0
32844 H 80.087 79.717 39.713 H 0.0 **** 0.0
32845 H 79.243 78.776 40.967 H 0.0 **** 0.0
32846 C 66.978 79.018 92.058 C 0.0 **** 0.0
32847 H 67.303 78.061 91.648 H 0.0 **** 0.0
32848 H 66.734 79.698 91.241 H 0.0 **** 0.0
32849 H 67.779 79.445 92.661 H 0.0 **** 0.0
32850 H 66.096 78.865 92.68 H 0.0 **** 0.0
32851 C 73.972 56.631 35.288 C 0.0 **** 0.0
32852 H 74.745 56.252 34.62 H 0.0 **** 0.0
32853 H 73.002 56.568 34.795 H 0.0 **** 0.0
32854 H 74.186 57.671 35.538 H 0.0 **** 0.0
32855 H 73.956 56.035 36.2 H 0.0 **** 0.0
32856 C 7.993 64.164 25.252 C 0.0 **** 0.0
32857 H 7.604 63.719 26.168 H 0.0 **** 0.0
32858 H 8.833 63.57 24.889 H 0.0 **** 0.0
32859 H 8.328 65.181 25.456 H 0.0 **** 0.0
32860 H 7.208 64.184 24.497 H 0.0 **** 0.0
32861 C 8.708 49.375 20.328 C 0.0 **** 0.0
32862 H 9.251 48.495 20.672 H 0.0 **** 0.0
32863 H 7.648 49.138 20.242 H 0.0 **** 0.0
32864 H 9.093 49.682 19.356 H 0.0 **** 0.0
32865 H 8.842 50.186 21.044 H 0.0 **** 0.0
32866 C 12.179 81.489 54.206 C 0.0 **** 0.0
32867 H 13.223 81.802 54.168 H 0.0 **** 0.0
32868 H 11.583 82.268 54.681 H 0.0 **** 0.0
32869 H 12.097 80.566 54.781 H 0.0 **** 0.0
32870 H 11.814 81.319 53.193 H 0.0 **** 0.0
32871 C 19.881 89.321 4.541 C 0.0 **** 0.0
32872 H 19.579 89.115 3.513 H 0.0 **** 0.0
32873 H 20.939 89.584 4.562 H 0.0 **** 0.0
32874 H 19.715 88.434 5.152 H 0.0 **** 0.0
32875 H 19.292 90.149 4.933 H 0.0 **** 0.0
32876 C 8.277 2.062 66.249 C 0.0 **** 0.0
32877 H 8.033 2.753 67.056 H 0.0 **** 0.0
32878 H 8.766 1.18 66.662 H 0.0 **** 0.0
32879 H 8.947 2.552 65.542 H 0.0 **** 0.0
32880 H 7.362 1.765 65.736 H 0.0 **** 0.0
32881 C 58.889 82.826 82.333 C 0.0 **** 0.0
32882 H 59.594 83.201 81.591 H 0.0 **** 0.0
32883 H 58.535 83.655 82.947 H 0.0 **** 0.0
32884 H 59.385 82.09 82.966 H 0.0 **** 0.0
32885 H 58.043 82.36 81.828 H 0.0 **** 0.0
32886 C 22.258 85.695 29.421 C 0.0 **** 0.0
32887 H 23.221 85.215 29.243 H 0.0 **** 0.0
32888 H 22.389 86.525 30.115 H 0.0 **** 0.0
32889 H 21.565 84.97 29.847 H 0.0 **** 0.0
32890 H 21.859 86.068 28.478 H 0.0 **** 0.0
32891 C 98.414 67.014 36.56 C 0.0 **** 0.0
32892 H 98.99 67.61 37.267 H 0.0 **** 0.0
32893 H 98.175 67.619 35.685 H 0.0 **** 0.0
32894 H 97.491 66.679 37.034 H 0.0 **** 0.0
32895 H 99.0 66.148 36.253 H 0.0 **** 0.0
32896 C 56.308 30.4 84.817 C 0.0 **** 0.0
32897 H 55.57 30.06 84.09 H 0.0 **** 0.0
32898 H 56.767 31.324 84.463 H 0.0 **** 0.0
32899 H 57.076 29.636 84.94 H 0.0 **** 0.0
32900 H 55.818 30.581 85.773 H 0.0 **** 0.0
32901 C 81.792 50.797 62.81 C 0.0 **** 0.0
32902 H 81.548 50.535 63.84 H 0.0 **** 0.0
32903 H 82.608 50.167 62.458 H 0.0 **** 0.0
32904 H 82.094 51.844 62.764 H 0.0 **** 0.0
32905 H 80.916 50.644 62.18 H 0.0 **** 0.0
32906 C 4.638 98.09 55.194 C 0.0 **** 0.0
32907 H 4.969 97.454 56.015 H 0.0 **** 0.0
32908 H 3.594 98.366 55.348 H 0.0 **** 0.0
32909 H 4.736 97.55 54.253 H 0.0 **** 0.0
32910 H 5.251 98.991 55.162 H 0.0 **** 0.0
32911 C 26.653 85.58 18.992 C 0.0 **** 0.0
32912 H 26.288 86.457 19.526 H 0.0 **** 0.0
32913 H 27.742 85.606 18.954 H 0.0 **** 0.0
32914 H 26.254 85.579 17.978 H 0.0 **** 0.0
32915 H 26.329 84.678 19.511 H 0.0 **** 0.0
32916 C 91.276 66.088 54.037 C 0.0 **** 0.0
32917 H 91.317 65.654 55.036 H 0.0 **** 0.0
32918 H 91.095 65.301 53.305 H 0.0 **** 0.0
32919 H 92.223 66.58 53.815 H 0.0 **** 0.0
32920 H 90.468 66.819 53.992 H 0.0 **** 0.0
32921 C 13.11 9.627 20.193 C 0.0 **** 0.0
32922 H 13.38 9.433 19.155 H 0.0 **** 0.0
32923 H 13.193 8.704 20.768 H 0.0 **** 0.0
32924 H 12.085 9.994 20.238 H 0.0 **** 0.0
32925 H 13.783 10.377 20.609 H 0.0 **** 0.0
32926 C 64.997 49.355 22.687 C 0.0 **** 0.0
32927 H 64.809 50.369 23.04 H 0.0 **** 0.0
32928 H 65.25 48.717 23.534 H 0.0 **** 0.0
32929 H 65.826 49.365 21.979 H 0.0 **** 0.0
32930 H 64.104 48.97 22.196 H 0.0 **** 0.0
32931 C 1.075 46.287 46.014 C 0.0 **** 0.0
32932 H 0.286 46.691 46.649 H 0.0 **** 0.0
32933 H 1.452 47.074 45.359 H 0.0 **** 0.0
32934 H 0.674 45.473 45.41 H 0.0 **** 0.0
32935 H 1.887 45.913 46.637 H 0.0 **** 0.0
32936 C 82.631 57.47 23.912 C 0.0 **** 0.0
32937 H 83.528 57.597 23.305 H 0.0 **** 0.0
32938 H 82.905 57.055 24.882 H 0.0 **** 0.0
32939 H 81.944 56.792 23.407 H 0.0 **** 0.0
32940 H 82.149 58.438 24.053 H 0.0 **** 0.0
32941 C 88.207 35.887 97.348 C 0.0 **** 0.0
32942 H 88.162 35.602 98.4 H 0.0 **** 0.0
32943 H 87.241 35.698 96.879 H 0.0 **** 0.0
32944 H 88.976 35.3 96.846 H 0.0 **** 0.0
32945 H 88.449 36.947 97.269 H 0.0 **** 0.0
32946 C 34.582 6.788 25.598 C 0.0 **** 0.0
32947 H 35.267 7.406 25.019 H 0.0 **** 0.0
32948 H 34.719 6.991 26.66 H 0.0 **** 0.0
32949 H 34.786 5.736 25.4 H 0.0 **** 0.0
32950 H 33.555 7.018 25.313 H 0.0 **** 0.0
32951 C 44.705 12.022 78.156 C 0.0 **** 0.0
32952 H 45.273 11.564 77.347 H 0.0 **** 0.0
32953 H 43.642 11.995 77.915 H 0.0 **** 0.0
32954 H 45.022 13.058 78.282 H 0.0 **** 0.0
32955 H 44.882 11.473 79.081 H 0.0 **** 0.0
32956 C 1.596 15.266 5.5 C 0.0 **** 0.0
32957 H 1.977 14.996 6.485 H 0.0 **** 0.0
32958 H 2.427 15.361 4.802 H 0.0 **** 0.0
32959 H 1.064 16.215 5.564 H 0.0 **** 0.0
32960 H 0.914 14.491 5.15 H 0.0 **** 0.0
32961 C 76.495 41.187 80.464 C 0.0 **** 0.0
32962 H 76.989 42.143 80.294 H 0.0 **** 0.0
32963 H 76.071 41.171 81.468 H 0.0 **** 0.0
32964 H 77.222 40.38 80.364 H 0.0 **** 0.0
32965 H 75.701 41.053 79.73 H 0.0 **** 0.0
32966 C 86.322 55.349 34.019 C 0.0 **** 0.0
32967 H 86.342 55.278 32.932 H 0.0 **** 0.0
32968 H 87.28 55.02 34.422 H 0.0 **** 0.0
32969 H 85.526 54.714 34.409 H 0.0 **** 0.0
32970 H 86.139 56.382 34.313 H 0.0 **** 0.0
32971 C 87.49 66.787 31.637 C 0.0 **** 0.0
32972 H 87.908 67.789 31.728 H 0.0 **** 0.0
32973 H 86.93 66.543 32.54 H 0.0 **** 0.0
32974 H 88.298 66.067 31.505 H 0.0 **** 0.0
32975 H 86.824 66.748 30.775 H 0.0 **** 0.0
32976 C 35.325 75.376 11.529 C 0.0 **** 0.0
32977 H 35.762 76.366 11.4 H 0.0 **** 0.0
32978 H 34.838 75.071 10.602 H 0.0 **** 0.0
32979 H 34.59 75.405 12.334 H 0.0 **** 0.0
32980 H 36.11 74.662 11.779 H 0.0 **** 0.0
32981 C 74.382 71.91 20.884 C 0.0 **** 0.0
32982 H 74.325 71.984 19.798 H 0.0 **** 0.0
32983 H 73.386 71.729 21.289 H 0.0 **** 0.0
32984 H 74.776 72.842 21.291 H 0.0 **** 0.0
32985 H 75.042 71.087 21.158 H 0.0 **** 0.0
32986 C 94.422 2.678 89.969 C 0.0 **** 0.0
32987 H 95.192 2.949 89.246 H 0.0 **** 0.0
32988 H 93.573 2.238 89.446 H 0.0 **** 0.0
32989 H 94.098 3.569 90.505 H 0.0 **** 0.0
32990 H 94.828 1.955 90.677 H 0.0 **** 0.0
32991 C 8.779 33.45 90.748 C 0.0 **** 0.0
32992 H 9.239 33.544 91.732 H 0.0 **** 0.0
32993 H 7.832 33.99 90.737 H 0.0 **** 0.0
32994 H 8.6 32.397 90.531 H 0.0 **** 0.0
32995 H 9.446 33.868 89.994 H 0.0 **** 0.0
32996 C 47.308 78.146 71.254 C 0.0 **** 0.0
32997 H 48.184 78.62 71.698 H 0.0 **** 0.0
32998 H 46.456 78.259 71.925 H 0.0 **** 0.0
32999 H 47.508 77.087 71.096 H 0.0 **** 0.0
33000 H 47.083 78.621 70.299 H 0.0 **** 0.0
33001 C 82.204 96.722 1.316 C 0.0 **** 0.0
33002 H 82.226 95.665 1.052 H 0.0 **** 0.0
33003 H 83.182 97.165 1.124 H 0.0 **** 0.0
33004 H 81.958 96.827 2.373 H 0.0 **** 0.0
33005 H 81.45 97.23 0.716 H 0.0 **** 0.0
33006 C 82.146 40.223 17.403 C 0.0 **** 0.0
33007 H 82.17 40.041 18.478 H 0.0 **** 0.0
33008 H 81.184 39.903 17.002 H 0.0 **** 0.0
33009 H 82.946 39.662 16.921 H 0.0 **** 0.0
33010 H 82.283 41.288 17.213 H 0.0 **** 0.0
33011 C 24.942 43.676 56.569 C 0.0 **** 0.0
33012 H 25.032 43.702 57.655 H 0.0 **** 0.0
33013 H 23.997 43.208 56.294 H 0.0 **** 0.0
33014 H 25.769 43.102 56.15 H 0.0 **** 0.0
33015 H 24.971 44.694 56.179 H 0.0 **** 0.0
33016 C 8.217 26.816 64.281 C 0.0 **** 0.0
33017 H 8.382 27.312 65.237 H 0.0 **** 0.0
33018 H 9.153 26.38 63.932 H 0.0 **** 0.0
33019 H 7.86 27.543 63.551 H 0.0 **** 0.0
33020 H 7.472 26.029 64.404 H 0.0 **** 0.0
33021 C 93.26 45.21 66.5 C 0.0 **** 0.0
33022 H 93.391 45.219 67.582 H 0.0 **** 0.0
33023 H 93.202 44.179 66.149 H 0.0 **** 0.0
33024 H 94.108 45.707 66.028 H 0.0 **** 0.0
33025 H 92.341 45.735 66.24 H 0.0 **** 0.0
33026 C 84.46 28.483 24.866 C 0.0 **** 0.0
33027 H 84.272 29.014 25.799 H 0.0 **** 0.0
33028 H 83.823 27.599 24.818 H 0.0 **** 0.0
33029 H 85.506 28.18 24.825 H 0.0 **** 0.0
33030 H 84.237 29.137 24.024 H 0.0 **** 0.0
33031 C 63.203 98.042 42.986 C 0.0 **** 0.0
33032 H 64.217 98.205 43.351 H 0.0 **** 0.0
33033 H 63.233 97.405 42.102 H 0.0 **** 0.0
33034 H 62.752 99.001 42.727 H 0.0 **** 0.0
33035 H 62.61 97.56 43.762 H 0.0 **** 0.0
33036 C 25.832 21.984 37.795 C 0.0 **** 0.0
33037 H 25.284 21.807 38.721 H 0.0 **** 0.0
33038 H 25.195 21.74 36.944 H 0.0 **** 0.0
33039 H 26.722 21.356 37.775 H 0.0 **** 0.0
33040 H 26.125 23.032 37.741 H 0.0 **** 0.0
33041 C 8.599 65.382 87.641 C 0.0 **** 0.0
33042 H 8.15 65.314 88.631 H 0.0 **** 0.0
33043 H 9.532 65.943 87.703 H 0.0 **** 0.0
33044 H 7.912 65.892 86.965 H 0.0 **** 0.0
33045 H 8.802 64.38 87.264 H 0.0 **** 0.0
33046 C 64.888 76.948 43.218 C 0.0 **** 0.0
33047 H 64.653 78.011 43.166 H 0.0 **** 0.0
33048 H 65.846 76.813 43.72 H 0.0 **** 0.0
33049 H 64.944 76.539 42.209 H 0.0 **** 0.0
33050 H 64.108 76.431 43.777 H 0.0 **** 0.0
33051 C 44.871 3.651 96.913 C 0.0 **** 0.0
33052 H 45.265 4.133 97.808 H 0.0 **** 0.0
33053 H 45.672 3.11 96.409 H 0.0 **** 0.0
33054 H 44.464 4.407 96.242 H 0.0 **** 0.0
33055 H 44.083 2.953 97.195 H 0.0 **** 0.0
33056 C 15.877 28.918 26.353 C 0.0 **** 0.0
33057 H 16.065 28.748 27.413 H 0.0 **** 0.0
33058 H 14.811 28.807 26.151 H 0.0 **** 0.0
33059 H 16.436 28.191 25.764 H 0.0 **** 0.0
33060 H 16.196 29.925 26.084 H 0.0 **** 0.0
33061 C 31.784 1.701 62.89 C 0.0 **** 0.0
33062 H 31.322 0.742 63.127 H 0.0 **** 0.0
33063 H 32.657 1.85 63.527 H 0.0 **** 0.0
33064 H 31.066 2.502 63.063 H 0.0 **** 0.0
33065 H 32.092 1.707 61.845 H 0.0 **** 0.0
33066 C 89.75 43.026 69.708 C 0.0 **** 0.0
33067 H 89.002 42.774 70.461 H 0.0 **** 0.0
33068 H 90.741 43.01 70.162 H 0.0 **** 0.0
33069 H 89.546 44.021 69.313 H 0.0 **** 0.0
33070 H 89.709 42.298 68.898 H 0.0 **** 0.0
33071 C 28.48 34.146 71.593 C 0.0 **** 0.0
33072 H 29.282 34.483 70.936 H 0.0 **** 0.0
33073 H 28.096 33.191 71.235 H 0.0 **** 0.0
33074 H 27.678 34.883 71.594 H 0.0 **** 0.0
33075 H 28.866 34.027 72.605 H 0.0 **** 0.0
33076 C 17.377 7.066 29.894 C 0.0 **** 0.0
33077 H 17.034 6.044 29.733 H 0.0 **** 0.0
33078 H 17.417 7.59 28.939 H 0.0 **** 0.0
33079 H 18.371 7.048 30.341 H 0.0 **** 0.0
33080 H 16.687 7.579 30.563 H 0.0 **** 0.0
33081 C 50.604 18.789 17.15 C 0.0 **** 0.0
33082 H 50.429 18.793 16.074 H 0.0 **** 0.0
33083 H 49.794 18.254 17.648 H 0.0 **** 0.0
33084 H 50.64 19.815 17.516 H 0.0 **** 0.0
33085 H 51.551 18.294 17.363 H 0.0 **** 0.0
33086 C 20.362 20.619 22.028 C 0.0 **** 0.0
33087 H 20.465 21.463 22.711 H 0.0 **** 0.0
33088 H 21.328 20.128 21.91 H 0.0 **** 0.0
33089 H 20.014 20.977 21.059 H 0.0 **** 0.0
33090 H 19.641 19.91 22.434 H 0.0 **** 0.0
33091 C 75.338 81.454 85.244 C 0.0 **** 0.0
33092 H 76.415 81.32 85.339 H 0.0 **** 0.0
33093 H 74.83 80.874 86.015 H 0.0 **** 0.0
33094 H 75.015 81.114 84.26 H 0.0 **** 0.0
33095 H 75.092 82.51 85.361 H 0.0 **** 0.0
33096 C 7.26 74.715 41.786 C 0.0 **** 0.0
33097 H 6.375 74.675 41.151 H 0.0 **** 0.0
33098 H 6.969 74.561 42.825 H 0.0 **** 0.0
33099 H 7.738 75.689 41.682 H 0.0 **** 0.0
33100 H 7.959 73.934 41.485 H 0.0 **** 0.0
33101 C 75.864 3.407 64.446 C 0.0 **** 0.0
33102 H 75.46 3.664 63.466 H 0.0 **** 0.0
33103 H 75.444 4.074 65.198 H 0.0 **** 0.0
33104 H 76.949 3.511 64.43 H 0.0 **** 0.0
33105 H 75.602 2.376 64.686 H 0.0 **** 0.0
33106 C 39.791 96.138 44.058 C 0.0 **** 0.0
33107 H 40.059 96.193 43.003 H 0.0 **** 0.0
33108 H 39.242 97.037 44.34 H 0.0 **** 0.0
33109 H 40.696 96.061 44.659 H 0.0 **** 0.0
33110 H 39.165 95.262 44.229 H 0.0 **** 0.0
33111 C 64.951 39.094 18.22 C 0.0 **** 0.0
33112 H 64.329 38.938 19.101 H 0.0 **** 0.0
33113 H 65.983 38.832 18.453 H 0.0 **** 0.0
33114 H 64.901 40.141 17.921 H 0.0 **** 0.0
33115 H 64.592 38.466 17.405 H 0.0 **** 0.0
33116 C 16.681 26.362 3.838 C 0.0 **** 0.0
33117 H 16.481 26.222 2.775 H 0.0 **** 0.0
33118 H 16.497 27.402 4.108 H 0.0 **** 0.0
33119 H 17.72 26.109 4.049 H 0.0 **** 0.0
33120 H 16.024 25.714 4.419 H 0.0 **** 0.0
33121 C 71.212 89.618 93.945 C 0.0 **** 0.0
33122 H 70.975 89.523 95.004 H 0.0 **** 0.0
33123 H 71.193 88.633 93.479 H 0.0 **** 0.0
33124 H 72.204 90.055 93.833 H 0.0 **** 0.0
33125 H 70.475 90.262 93.465 H 0.0 **** 0.0
33126 C 10.024 87.772 92.199 C 0.0 **** 0.0
33127 H 10.422 87.815 93.213 H 0.0 **** 0.0
33128 H 9.581 86.792 92.024 H 0.0 **** 0.0
33129 H 10.832 87.939 91.486 H 0.0 **** 0.0
33130 H 9.264 88.544 92.074 H 0.0 **** 0.0
33131 C 46.058 66.309 48.33 C 0.0 **** 0.0
33132 H 46.203 66.297 47.249 H 0.0 **** 0.0
33133 H 45.6 65.372 48.645 H 0.0 **** 0.0
33134 H 45.407 67.141 48.599 H 0.0 **** 0.0
33135 H 47.022 66.427 48.824 H 0.0 **** 0.0
33136 C 45.011 22.956 51.437 C 0.0 **** 0.0
33137 H 44.987 22.019 50.88 H 0.0 **** 0.0
33138 H 45.606 23.688 50.89 H 0.0 **** 0.0
33139 H 45.456 22.784 52.417 H 0.0 **** 0.0
33140 H 43.995 23.331 51.559 H 0.0 **** 0.0
33141 C 3.751 17.719 51.264 C 0.0 **** 0.0
33142 H 2.966 18.403 50.94 H 0.0 **** 0.0
33143 H 3.302 16.785 51.602 H 0.0 **** 0.0
33144 H 4.311 18.171 52.082 H 0.0 **** 0.0
33145 H 4.424 17.518 50.43 H 0.0 **** 0.0
33146 C 4.734 13.538 67.824 C 0.0 **** 0.0
33147 H 3.784 13.569 68.358 H 0.0 **** 0.0
33148 H 5.233 12.59 68.025 H 0.0 **** 0.0
33149 H 5.366 14.36 68.159 H 0.0 **** 0.0
33150 H 4.551 13.633 66.753 H 0.0 **** 0.0
33151 C 39.409 23.784 28.367 C 0.0 **** 0.0
33152 H 39.948 23.098 29.02 H 0.0 **** 0.0
33153 H 38.77 24.431 28.969 H 0.0 **** 0.0
33154 H 38.796 23.215 27.669 H 0.0 **** 0.0
33155 H 40.123 24.393 27.812 H 0.0 **** 0.0
33156 C 41.25 8.179 30.282 C 0.0 **** 0.0
33157 H 41.682 8.466 31.241 H 0.0 **** 0.0
33158 H 41.409 8.978 29.558 H 0.0 **** 0.0
33159 H 40.18 8.006 30.403 H 0.0 **** 0.0
33160 H 41.727 7.266 29.927 H 0.0 **** 0.0
33161 C 91.605 24.365 57.521 C 0.0 **** 0.0
33162 H 92.078 24.491 56.546 H 0.0 **** 0.0
33163 H 91.543 25.332 58.021 H 0.0 **** 0.0
33164 H 92.198 23.679 58.126 H 0.0 **** 0.0
33165 H 90.602 23.959 57.388 H 0.0 **** 0.0
33166 C 29.928 52.387 28.002 C 0.0 **** 0.0
33167 H 28.957 51.893 27.973 H 0.0 **** 0.0
33168 H 30.56 51.899 28.744 H 0.0 **** 0.0
33169 H 29.794 53.435 28.271 H 0.0 **** 0.0
33170 H 30.399 52.32 27.022 H 0.0 **** 0.0
33171 C 88.141 58.94 29.273 C 0.0 **** 0.0
33172 H 88.258 57.914 29.622 H 0.0 **** 0.0
33173 H 87.883 59.583 30.114 H 0.0 **** 0.0
33174 H 87.348 58.981 28.526 H 0.0 **** 0.0
33175 H 89.076 59.281 28.828 H 0.0 **** 0.0
33176 C 36.507 6.337 95.007 C 0.0 **** 0.0
33177 H 37.518 6.624 95.297 H 0.0 **** 0.0
33178 H 36.553 5.492 94.321 H 0.0 **** 0.0
33179 H 36.018 7.178 94.516 H 0.0 **** 0.0
33180 H 35.941 6.055 95.895 H 0.0 **** 0.0
33181 C 98.25 79.211 78.453 C 0.0 **** 0.0
33182 H 98.85 78.316 78.616 H 0.0 **** 0.0
33183 H 97.434 79.238 79.176 H 0.0 **** 0.0
33184 H 97.841 79.196 77.443 H 0.0 **** 0.0
33185 H 98.876 80.095 78.578 H 0.0 **** 0.0
33186 C 61.088 64.945 53.376 C 0.0 **** 0.0
33187 H 60.76 64.359 54.235 H 0.0 **** 0.0
33188 H 62.061 65.387 53.589 H 0.0 **** 0.0
33189 H 60.364 65.736 53.18 H 0.0 **** 0.0
33190 H 61.164 64.298 52.503 H 0.0 **** 0.0
33191 C 1.235 5.005 36.498 C 0.0 **** 0.0
33192 H 1.518 4.898 35.45 H 0.0 **** 0.0
33193 H 1.31 4.037 36.994 H 0.0 **** 0.0
33194 H 0.21 5.369 36.562 H 0.0 **** 0.0
33195 H 1.904 5.715 36.984 H 0.0 **** 0.0
33196 C 2.203 93.651 90.67 C 0.0 **** 0.0
33197 H 2.082 93.559 91.749 H 0.0 **** 0.0
33198 H 2.627 94.628 90.435 H 0.0 **** 0.0
33199 H 1.232 93.55 90.186 H 0.0 **** 0.0
33200 H 2.872 92.869 90.312 H 0.0 **** 0.0
33201 C 77.449 23.243 48.056 C 0.0 **** 0.0
33202 H 77.087 23.176 49.082 H 0.0 **** 0.0
33203 H 77.128 24.189 47.619 H 0.0 **** 0.0
33204 H 77.042 22.417 47.472 H 0.0 **** 0.0
33205 H 78.537 23.19 48.05 H 0.0 **** 0.0
33206 C 1.59 90.851 16.498 C 0.0 **** 0.0
33207 H 1.256 91.093 15.489 H 0.0 **** 0.0
33208 H 1.428 91.709 17.15 H 0.0 **** 0.0
33209 H 2.652 90.604 16.479 H 0.0 **** 0.0
33210 H 1.025 89.997 16.873 H 0.0 **** 0.0
33211 C 36.701 33.102 56.684 C 0.0 **** 0.0
33212 H 35.754 33.479 56.297 H 0.0 **** 0.0
33213 H 36.695 32.012 56.658 H 0.0 **** 0.0
33214 H 36.834 33.441 57.712 H 0.0 **** 0.0
33215 H 37.52 33.476 56.069 H 0.0 **** 0.0
33216 C 1.587 42.907 93.907 C 0.0 **** 0.0
33217 H 0.693 42.284 93.89 H 0.0 **** 0.0
33218 H 2.332 42.456 94.564 H 0.0 **** 0.0
33219 H 1.33 43.9 94.277 H 0.0 **** 0.0
33220 H 1.993 42.988 92.899 H 0.0 **** 0.0
33221 C 83.33 26.533 95.557 C 0.0 **** 0.0
33222 H 82.347 26.314 95.14 H 0.0 **** 0.0
33223 H 83.339 27.55 95.948 H 0.0 **** 0.0
33224 H 84.085 26.435 94.778 H 0.0 **** 0.0
33225 H 83.546 25.832 96.363 H 0.0 **** 0.0
33226 C 54.46 57.227 97.083 C 0.0 **** 0.0
33227 H 53.924 56.631 96.344 H 0.0 **** 0.0
33228 H 55.257 56.627 97.523 H 0.0 **** 0.0
33229 H 53.769 57.544 97.864 H 0.0 **** 0.0
33230 H 54.89 58.104 96.599 H 0.0 **** 0.0
33231 C 77.738 43.049 89.679 C 0.0 **** 0.0
33232 H 78.149 43.063 88.669 H 0.0 **** 0.0
33233 H 78.431 43.545 90.359 H 0.0 **** 0.0
33234 H 77.593 42.017 89.997 H 0.0 **** 0.0
33235 H 76.782 43.571 89.689 H 0.0 **** 0.0
33236 C 42.419 6.727 54.503 C 0.0 **** 0.0
33237 H 42.015 6.112 55.308 H 0.0 **** 0.0
33238 H 43.492 6.556 54.419 H 0.0 **** 0.0
33239 H 42.234 7.779 54.723 H 0.0 **** 0.0
33240 H 41.933 6.461 53.564 H 0.0 **** 0.0
33241 C 8.479 90.315 25.457 C 0.0 **** 0.0
33242 H 7.827 89.987 24.648 H 0.0 **** 0.0
33243 H 8.087 91.236 25.888 H 0.0 **** 0.0
33244 H 9.481 90.493 25.067 H 0.0 **** 0.0
33245 H 8.52 89.542 26.226 H 0.0 **** 0.0
33246 C 42.407 15.617 3.479 C 0.0 **** 0.0
33247 H 41.875 15.589 2.528 H 0.0 **** 0.0
33248 H 43.48 15.68 3.293 H 0.0 **** 0.0
33249 H 42.189 14.71 4.044 H 0.0 **** 0.0
33250 H 42.085 16.487 4.05 H 0.0 **** 0.0
33251 C 32.458 37.933 9.044 C 0.0 **** 0.0
33252 H 32.106 38.196 8.047 H 0.0 **** 0.0
33253 H 31.647 37.468 9.605 H 0.0 **** 0.0
33254 H 32.79 38.833 9.561 H 0.0 **** 0.0
33255 H 33.29 37.233 8.962 H 0.0 **** 0.0
33256 C 26.801 7.392 75.306 C 0.0 **** 0.0
33257 H 26.892 8.405 75.699 H 0.0 **** 0.0
33258 H 27.409 6.715 75.906 H 0.0 **** 0.0
33259 H 27.147 7.372 74.273 H 0.0 **** 0.0
33260 H 25.758 7.078 75.347 H 0.0 **** 0.0
33261 C 53.059 15.675 19.178 C 0.0 **** 0.0
33262 H 53.855 15.83 19.906 H 0.0 **** 0.0
33263 H 52.603 14.698 19.34 H 0.0 **** 0.0
33264 H 53.475 15.72 18.171 H 0.0 **** 0.0
33265 H 52.305 16.453 19.295 H 0.0 **** 0.0
33266 C 84.66 55.857 4.657 C 0.0 **** 0.0
33267 H 84.686 56.709 3.978 H 0.0 **** 0.0
33268 H 84.798 54.936 4.091 H 0.0 **** 0.0
33269 H 83.697 55.829 5.167 H 0.0 **** 0.0
33270 H 85.458 55.955 5.393 H 0.0 **** 0.0
33271 C 26.07 80.018 2.494 C 0.0 **** 0.0
33272 H 26.277 79.827 3.547 H 0.0 **** 0.0
33273 H 25.882 79.072 1.984 H 0.0 **** 0.0
33274 H 26.929 80.512 2.039 H 0.0 **** 0.0
33275 H 25.193 80.659 2.406 H 0.0 **** 0.0
33276 C 5.601 88.061 65.851 C 0.0 **** 0.0
33277 H 5.824 88.483 64.871 H 0.0 **** 0.0
33278 H 4.841 87.287 65.749 H 0.0 **** 0.0
33279 H 5.233 88.848 66.51 H 0.0 **** 0.0
33280 H 6.507 87.627 66.275 H 0.0 **** 0.0
33281 C 20.008 37.078 5.051 C 0.0 **** 0.0
33282 H 20.364 36.402 5.827 H 0.0 **** 0.0
33283 H 19.818 36.514 4.137 H 0.0 **** 0.0
33284 H 20.763 37.84 4.857 H 0.0 **** 0.0
33285 H 19.086 37.557 5.381 H 0.0 **** 0.0
33286 C 31.304 56.995 66.632 C 0.0 **** 0.0
33287 H 31.764 57.633 67.387 H 0.0 **** 0.0
33288 H 30.336 57.408 66.349 H 0.0 **** 0.0
33289 H 31.167 55.993 67.039 H 0.0 **** 0.0
33290 H 31.949 56.946 65.755 H 0.0 **** 0.0
33291 C 80.368 67.561 45.56 C 0.0 **** 0.0
33292 H 81.095 68.171 45.024 H 0.0 **** 0.0
33293 H 80.649 66.51 45.482 H 0.0 **** 0.0
33294 H 79.38 67.706 45.123 H 0.0 **** 0.0
33295 H 80.349 67.856 46.609 H 0.0 **** 0.0
33296 C 68.662 70.213 55.929 C 0.0 **** 0.0
33297 H 68.867 70.121 54.863 H 0.0 **** 0.0
33298 H 68.376 71.24 56.157 H 0.0 **** 0.0
33299 H 69.557 69.95 56.494 H 0.0 **** 0.0
33300 H 67.85 69.539 56.202 H 0.0 **** 0.0
33301 C 58.763 52.886 52.938 C 0.0 **** 0.0
33302 H 58.155 53.773 52.764 H 0.0 **** 0.0
33303 H 59.78 53.187 53.192 H 0.0 **** 0.0
33304 H 58.78 52.274 52.037 H 0.0 **** 0.0
33305 H 58.339 52.311 53.761 H 0.0 **** 0.0
33306 C 71.903 25.436 46.002 C 0.0 **** 0.0
33307 H 71.945 25.5 47.089 H 0.0 **** 0.0
33308 H 71.274 26.238 45.615 H 0.0 **** 0.0
33309 H 71.484 24.473 45.71 H 0.0 **** 0.0
33310 H 72.909 25.533 45.593 H 0.0 **** 0.0
33311 C 31.027 33.59 87.65 C 0.0 **** 0.0
33312 H 29.969 33.78 87.47 H 0.0 **** 0.0
33313 H 31.615 33.999 86.828 H 0.0 **** 0.0
33314 H 31.196 32.515 87.718 H 0.0 **** 0.0
33315 H 31.328 34.064 88.584 H 0.0 **** 0.0
33316 C 22.428 76.982 92.859 C 0.0 **** 0.0
33317 H 22.756 77.039 91.821 H 0.0 **** 0.0
33318 H 21.399 76.624 92.896 H 0.0 **** 0.0
33319 H 22.485 77.972 93.312 H 0.0 **** 0.0
33320 H 23.072 76.294 93.406 H 0.0 **** 0.0
33321 C 72.667 68.51 80.128 C 0.0 **** 0.0
33322 H 73.44 68.022 80.721 H 0.0 **** 0.0
33323 H 72.767 68.21 79.084 H 0.0 **** 0.0
33324 H 72.776 69.591 80.207 H 0.0 **** 0.0
33325 H 71.685 68.215 80.498 H 0.0 **** 0.0
33326 C 65.614 32.627 14.192 C 0.0 **** 0.0
33327 H 65.767 31.618 14.576 H 0.0 **** 0.0
33328 H 64.567 32.756 13.918 H 0.0 **** 0.0
33329 H 66.242 32.779 13.314 H 0.0 **** 0.0
33330 H 65.882 33.352 14.96 H 0.0 **** 0.0
33331 C 59.589 57.533 55.103 C 0.0 **** 0.0
33332 H 59.807 56.583 54.616 H 0.0 **** 0.0
33333 H 60.134 58.332 54.599 H 0.0 **** 0.0
33334 H 59.897 57.486 56.147 H 0.0 **** 0.0
33335 H 58.519 57.732 55.048 H 0.0 **** 0.0
33336 C 66.961 94.607 83.765 C 0.0 **** 0.0
33337 H 67.563 93.786 84.156 H 0.0 **** 0.0
33338 H 65.905 94.339 83.817 H 0.0 **** 0.0
33339 H 67.237 94.798 82.728 H 0.0 **** 0.0
33340 H 67.138 95.503 84.36 H 0.0 **** 0.0
33341 C 6.032 46.245 38.997 C 0.0 **** 0.0
33342 H 5.19 46.883 38.729 H 0.0 **** 0.0
33343 H 6.965 46.765 38.784 H 0.0 **** 0.0
33344 H 5.988 45.323 38.416 H 0.0 **** 0.0
33345 H 5.982 46.006 40.06 H 0.0 **** 0.0
33346 C 38.624 49.84 62.494 C 0.0 **** 0.0
33347 H 39.419 50.384 63.004 H 0.0 **** 0.0
33348 H 37.823 50.532 62.23 H 0.0 **** 0.0
33349 H 38.233 49.065 63.152 H 0.0 **** 0.0
33350 H 39.021 49.382 61.588 H 0.0 **** 0.0
33351 C 59.814 51.193 74.751 C 0.0 **** 0.0
33352 H 59.904 51.46 73.698 H 0.0 **** 0.0
33353 H 60.426 50.315 74.956 H 0.0 **** 0.0
33354 H 58.772 50.972 74.982 H 0.0 **** 0.0
33355 H 60.154 52.026 75.367 H 0.0 **** 0.0
33356 C 18.758 29.891 85.554 C 0.0 **** 0.0
33357 H 18.686 28.812 85.69 H 0.0 **** 0.0
33358 H 19.782 30.213 85.744 H 0.0 **** 0.0
33359 H 18.084 30.39 86.25 H 0.0 **** 0.0
33360 H 18.48 30.147 84.532 H 0.0 **** 0.0
33361 C 90.379 90.299 65.075 C 0.0 **** 0.0
33362 H 89.994 90.813 65.956 H 0.0 **** 0.0
33363 H 90.305 90.959 64.21 H 0.0 **** 0.0
33364 H 89.793 89.398 64.895 H 0.0 **** 0.0
33365 H 91.422 90.028 65.238 H 0.0 **** 0.0
33366 C 51.05 36.812 52.576 C 0.0 **** 0.0
33367 H 50.358 36.79 53.418 H 0.0 **** 0.0
33368 H 52.071 36.711 52.942 H 0.0 **** 0.0
33369 H 50.945 37.758 52.044 H 0.0 **** 0.0
33370 H 50.823 35.988 51.899 H 0.0 **** 0.0
33371 C 50.553 56.444 76.303 C 0.0 **** 0.0
33372 H 51.559 56.351 76.712 H 0.0 **** 0.0
33373 H 50.593 56.358 75.217 H 0.0 **** 0.0
33374 H 50.138 57.414 76.577 H 0.0 **** 0.0
33375 H 49.923 55.651 76.707 H 0.0 **** 0.0
33376 C 26.85 55.213 35.614 C 0.0 **** 0.0
33377 H 26.765 56.084 34.965 H 0.0 **** 0.0
33378 H 26.484 55.466 36.61 H 0.0 **** 0.0
33379 H 27.894 54.907 35.677 H 0.0 **** 0.0
33380 H 26.255 54.396 35.205 H 0.0 **** 0.0
33381 C 95.697 8.158 47.211 C 0.0 **** 0.0
33382 H 95.751 8.121 46.123 H 0.0 **** 0.0
33383 H 96.475 7.523 47.635 H 0.0 **** 0.0
33384 H 94.72 7.804 47.538 H 0.0 **** 0.0
33385 H 95.843 9.185 47.547 H 0.0 **** 0.0
33386 C 42.357 66.537 69.331 C 0.0 **** 0.0
33387 H 42.445 67.283 68.542 H 0.0 **** 0.0
33388 H 41.306 66.284 69.476 H 0.0 **** 0.0
33389 H 42.765 66.939 70.258 H 0.0 **** 0.0
33390 H 42.911 65.642 69.048 H 0.0 **** 0.0
33391 C 57.408 23.403 92.994 C 0.0 **** 0.0
33392 H 57.038 22.43 92.671 H 0.0 **** 0.0
33393 H 56.601 23.958 93.473 H 0.0 **** 0.0
33394 H 57.77 23.959 92.129 H 0.0 **** 0.0
33395 H 58.224 23.263 93.703 H 0.0 **** 0.0
33396 C 6.568 28.269 92.45 C 0.0 **** 0.0
33397 H 6.651 27.809 93.434 H 0.0 **** 0.0
33398 H 6.61 29.354 92.552 H 0.0 **** 0.0
33399 H 5.621 27.983 91.994 H 0.0 **** 0.0
33400 H 7.391 27.931 91.821 H 0.0 **** 0.0
33401 C 73.79 84.019 31.056 C 0.0 **** 0.0
33402 H 73.903 84.674 31.92 H 0.0 **** 0.0
33403 H 74.469 83.172 31.152 H 0.0 **** 0.0
33404 H 74.027 84.573 30.147 H 0.0 **** 0.0
33405 H 72.763 83.659 31.005 H 0.0 **** 0.0
33406 C 16.503 11.413 12.667 C 0.0 **** 0.0
33407 H 16.804 11.646 13.688 H 0.0 **** 0.0
33408 H 15.81 10.571 12.677 H 0.0 **** 0.0
33409 H 17.383 11.153 12.079 H 0.0 **** 0.0
33410 H 16.013 12.281 12.225 H 0.0 **** 0.0
33411 C 24.424 4.518 86.287 C 0.0 **** 0.0
33412 H 24.779 4.809 85.299 H 0.0 **** 0.0
33413 H 25.092 4.923 87.047 H 0.0 **** 0.0
33414 H 24.407 3.43 86.36 H 0.0 **** 0.0
33415 H 23.418 4.908 86.441 H 0.0 **** 0.0
33416 C 55.593 14.275 49.025 C 0.0 **** 0.0
33417 H 55.527 14.142 50.105 H 0.0 **** 0.0
33418 H 54.589 14.313 48.601 H 0.0 **** 0.0
33419 H 56.14 13.438 48.589 H 0.0 **** 0.0
33420 H 56.116 15.205 48.805 H 0.0 **** 0.0
33421 C 98.334 45.121 64.693 C 0.0 **** 0.0
33422 H 98.448 45.8 65.538 H 0.0 **** 0.0
33423 H 98.587 44.108 65.005 H 0.0 **** 0.0
33424 H 99.0 45.43 63.887 H 0.0 **** 0.0
33425 H 97.302 45.147 64.343 H 0.0 **** 0.0
33426 C 88.885 76.557 40.673 C 0.0 **** 0.0
33427 H 89.063 76.341 41.727 H 0.0 **** 0.0
33428 H 87.994 76.024 40.338 H 0.0 **** 0.0
33429 H 89.744 76.233 40.086 H 0.0 **** 0.0
33430 H 88.739 77.629 40.542 H 0.0 **** 0.0
33431 C 72.8 48.406 58.654 C 0.0 **** 0.0
33432 H 71.806 48.118 58.997 H 0.0 **** 0.0
33433 H 73.225 47.599 58.057 H 0.0 **** 0.0
33434 H 73.44 48.597 59.515 H 0.0 **** 0.0
33435 H 72.727 49.308 58.047 H 0.0 **** 0.0
33436 C 9.177 81.527 5.237 C 0.0 **** 0.0
33437 H 9.762 82.325 5.694 H 0.0 **** 0.0
33438 H 9.296 80.612 5.818 H 0.0 **** 0.0
33439 H 9.525 81.359 4.218 H 0.0 **** 0.0
33440 H 8.125 81.812 5.22 H 0.0 **** 0.0
33441 C 81.042 51.808 76.446 C 0.0 **** 0.0
33442 H 80.453 52.66 76.787 H 0.0 **** 0.0
33443 H 82.102 52.019 76.591 H 0.0 **** 0.0
33444 H 80.847 51.633 75.388 H 0.0 **** 0.0
33445 H 80.765 50.923 77.018 H 0.0 **** 0.0
33446 C 88.338 48.419 98.396 C 0.0 **** 0.0
33447 H 89.051 47.85 98.993 H 0.0 **** 0.0
33448 H 87.493 47.781 98.135 H 0.0 **** 0.0
33449 H 88.824 48.77 97.486 H 0.0 **** 0.0
33450 H 87.984 49.274 98.972 H 0.0 **** 0.0
33451 C 49.265 56.92 90.178 C 0.0 **** 0.0
33452 H 49.288 57.587 89.316 H 0.0 **** 0.0
33453 H 49.961 56.096 90.018 H 0.0 **** 0.0
33454 H 48.257 56.526 90.306 H 0.0 **** 0.0
33455 H 49.556 57.473 91.072 H 0.0 **** 0.0
33456 C 8.087 26.164 54.42 C 0.0 **** 0.0
33457 H 7.832 25.303 55.038 H 0.0 **** 0.0
33458 H 8.75 25.85 53.614 H 0.0 **** 0.0
33459 H 8.588 26.914 55.032 H 0.0 **** 0.0
33460 H 7.177 26.59 53.997 H 0.0 **** 0.0
33461 C 11.809 31.61 43.086 C 0.0 **** 0.0
33462 H 12.238 32.56 42.768 H 0.0 **** 0.0
33463 H 12.58 31.006 43.566 H 0.0 **** 0.0
33464 H 11.418 31.079 42.218 H 0.0 **** 0.0
33465 H 11.0 31.796 43.793 H 0.0 **** 0.0
33466 C 97.286 0.625 90.927 C 0.0 **** 0.0
33467 H 98.109 0.0 91.271 H 0.0 **** 0.0
33468 H 97.035 1.353 91.698 H 0.0 **** 0.0
33469 H 96.417 0.0 90.72 H 0.0 **** 0.0
33470 H 97.582 1.147 90.017 H 0.0 **** 0.0
33471 C 62.224 86.836 14.76 C 0.0 **** 0.0
33472 H 62.21 86.801 15.85 H 0.0 **** 0.0
33473 H 61.799 85.914 14.362 H 0.0 **** 0.0
33474 H 63.252 86.942 14.414 H 0.0 **** 0.0
33475 H 61.636 87.686 14.416 H 0.0 **** 0.0
33476 C 43.601 11.538 88.55 C 0.0 **** 0.0
33477 H 44.56 11.32 89.02 H 0.0 **** 0.0
33478 H 42.815 10.973 89.052 H 0.0 **** 0.0
33479 H 43.639 11.253 87.499 H 0.0 **** 0.0
33480 H 43.391 12.604 88.631 H 0.0 **** 0.0
33481 C 90.795 67.075 27.733 C 0.0 **** 0.0
33482 H 90.797 66.686 28.751 H 0.0 **** 0.0
33483 H 91.808 67.361 27.451 H 0.0 **** 0.0
33484 H 90.142 67.946 27.679 H 0.0 **** 0.0
33485 H 90.432 66.305 27.051 H 0.0 **** 0.0
33486 C 58.097 42.503 86.588 C 0.0 **** 0.0
33487 H 57.86 42.937 87.56 H 0.0 **** 0.0
33488 H 57.491 42.982 85.819 H 0.0 **** 0.0
33489 H 57.882 41.434 86.607 H 0.0 **** 0.0
33490 H 59.153 42.658 86.369 H 0.0 **** 0.0
33491 C 44.768 18.877 27.423 C 0.0 **** 0.0
33492 H 44.506 19.744 28.029 H 0.0 **** 0.0
33493 H 45.043 19.204 26.42 H 0.0 **** 0.0
33494 H 43.912 18.204 27.364 H 0.0 **** 0.0
33495 H 45.609 18.356 27.879 H 0.0 **** 0.0
33496 C 73.083 94.749 92.121 C 0.0 **** 0.0
33497 H 73.066 94.621 93.203 H 0.0 **** 0.0
33498 H 72.105 94.497 91.71 H 0.0 **** 0.0
33499 H 73.839 94.093 91.689 H 0.0 **** 0.0
33500 H 73.322 95.785 91.882 H 0.0 **** 0.0
33501 C 2.455 51.14 82.912 C 0.0 **** 0.0
33502 H 1.539 51.393 83.446 H 0.0 **** 0.0
33503 H 2.988 50.358 83.453 H 0.0 **** 0.0
33504 H 3.087 52.025 82.837 H 0.0 **** 0.0
33505 H 2.206 50.786 81.911 H 0.0 **** 0.0
33506 C 53.075 4.113 4.435 C 0.0 **** 0.0
33507 H 52.328 3.595 3.835 H 0.0 **** 0.0
33508 H 53.281 5.09 3.996 H 0.0 **** 0.0
33509 H 53.993 3.525 4.46 H 0.0 **** 0.0
33510 H 52.7 4.243 5.45 H 0.0 **** 0.0
33511 C 36.511 87.429 5.112 C 0.0 **** 0.0
33512 H 37.363 87.149 4.492 H 0.0 **** 0.0
33513 H 36.866 87.95 6.002 H 0.0 **** 0.0
33514 H 35.967 86.532 5.409 H 0.0 **** 0.0
33515 H 35.85 88.085 4.546 H 0.0 **** 0.0
33516 C 16.914 17.323 95.169 C 0.0 **** 0.0
33517 H 16.881 17.064 94.111 H 0.0 **** 0.0
33518 H 16.833 18.404 95.281 H 0.0 **** 0.0
33519 H 17.857 16.983 95.597 H 0.0 **** 0.0
33520 H 16.085 16.841 95.687 H 0.0 **** 0.0
33521 C 86.279 65.22 78.915 C 0.0 **** 0.0
33522 H 86.266 66.305 78.815 H 0.0 **** 0.0
33523 H 85.488 64.789 78.301 H 0.0 **** 0.0
33524 H 86.119 64.949 79.958 H 0.0 **** 0.0
33525 H 87.245 64.837 78.585 H 0.0 **** 0.0
33526 C 21.654 50.857 63.226 C 0.0 **** 0.0
33527 H 21.772 50.685 64.296 H 0.0 **** 0.0
33528 H 22.254 50.133 62.674 H 0.0 **** 0.0
33529 H 21.985 51.866 62.981 H 0.0 **** 0.0
33530 H 20.605 50.742 62.954 H 0.0 **** 0.0
33531 C 55.945 34.263 77.906 C 0.0 **** 0.0
33532 H 56.412 33.584 78.619 H 0.0 **** 0.0
33533 H 56.163 33.931 76.891 H 0.0 **** 0.0
33534 H 56.339 35.269 78.051 H 0.0 **** 0.0
33535 H 54.866 34.269 78.063 H 0.0 **** 0.0
33536 C 60.581 70.405 2.138 C 0.0 **** 0.0
33537 H 61.018 70.527 1.147 H 0.0 **** 0.0
33538 H 60.468 69.342 2.356 H 0.0 **** 0.0
33539 H 59.604 70.887 2.167 H 0.0 **** 0.0
33540 H 61.234 70.861 2.881 H 0.0 **** 0.0
33541 C 84.068 7.709 93.915 C 0.0 **** 0.0
33542 H 85.025 8.189 93.712 H 0.0 **** 0.0
33543 H 83.257 8.376 93.622 H 0.0 **** 0.0
33544 H 83.991 7.489 94.98 H 0.0 **** 0.0
33545 H 83.998 6.781 93.347 H 0.0 **** 0.0
33546 C 2.138 39.05 86.657 C 0.0 **** 0.0
33547 H 3.141 39.478 86.642 H 0.0 **** 0.0
33548 H 1.46 39.695 86.098 H 0.0 **** 0.0
33549 H 1.795 38.968 87.688 H 0.0 **** 0.0
33550 H 2.159 38.061 86.201 H 0.0 **** 0.0
33551 C 47.387 26.331 63.869 C 0.0 **** 0.0
33552 H 47.795 25.68 64.642 H 0.0 **** 0.0
33553 H 48.202 26.736 63.269 H 0.0 **** 0.0
33554 H 46.839 27.149 64.336 H 0.0 **** 0.0
33555 H 46.714 25.76 63.231 H 0.0 **** 0.0
33556 C 69.768 76.475 85.969 C 0.0 **** 0.0
33557 H 69.7 77.412 86.522 H 0.0 **** 0.0
33558 H 70.785 76.088 86.035 H 0.0 **** 0.0
33559 H 69.513 76.65 84.924 H 0.0 **** 0.0
33560 H 69.075 75.75 86.396 H 0.0 **** 0.0
33561 C 61.547 71.584 41.008 C 0.0 **** 0.0
33562 H 60.97 70.792 41.485 H 0.0 **** 0.0
33563 H 61.426 71.521 39.927 H 0.0 **** 0.0
33564 H 62.6 71.47 41.264 H 0.0 **** 0.0
33565 H 61.191 72.553 41.358 H 0.0 **** 0.0
33566 C 18.595 6.922 68.718 C 0.0 **** 0.0
33567 H 19.516 7.291 69.17 H 0.0 **** 0.0
33568 H 17.739 7.321 69.261 H 0.0 **** 0.0
33569 H 18.58 5.833 68.763 H 0.0 **** 0.0
33570 H 18.548 7.243 67.677 H 0.0 **** 0.0
33571 C 2.599 95.445 3.081 C 0.0 **** 0.0
33572 H 1.564 95.728 3.273 H 0.0 **** 0.0
33573 H 2.967 95.986 2.209 H 0.0 **** 0.0
33574 H 2.653 94.372 2.894 H 0.0 **** 0.0
33575 H 3.21 95.694 3.948 H 0.0 **** 0.0
33576 C 36.201 73.728 75.991 C 0.0 **** 0.0
33577 H 37.213 73.549 75.628 H 0.0 **** 0.0
33578 H 35.775 74.586 75.47 H 0.0 **** 0.0
33579 H 36.23 73.929 77.061 H 0.0 **** 0.0
33580 H 35.587 72.847 75.803 H 0.0 **** 0.0
33581 C 35.596 14.995 59.423 C 0.0 **** 0.0
33582 H 36.263 14.8 58.583 H 0.0 **** 0.0
33583 H 36.186 15.262 60.301 H 0.0 **** 0.0
33584 H 35.011 14.1 59.637 H 0.0 **** 0.0
33585 H 34.925 15.816 59.172 H 0.0 **** 0.0
33586 C 0.996 65.559 46.423 C 0.0 **** 0.0
33587 H 0.149 66.229 46.575 H 0.0 **** 0.0
33588 H 1.322 65.164 47.386 H 0.0 **** 0.0
33589 H 1.815 66.108 45.959 H 0.0 **** 0.0
33590 H 0.696 64.736 45.775 H 0.0 **** 0.0
33591 C 45.524 77.782 79.037 C 0.0 **** 0.0
33592 H 44.596 78.093 79.515 H 0.0 **** 0.0
33593 H 45.791 78.499 78.261 H 0.0 **** 0.0
33594 H 45.391 76.796 78.592 H 0.0 **** 0.0
33595 H 46.319 77.739 79.782 H 0.0 **** 0.0
33596 C 48.619 21.96 89.805 C 0.0 **** 0.0
33597 H 48.639 21.895 90.893 H 0.0 **** 0.0
33598 H 48.761 22.998 89.501 H 0.0 **** 0.0
33599 H 47.657 21.602 89.438 H 0.0 **** 0.0
33600 H 49.418 21.347 89.39 H 0.0 **** 0.0
33601 C 35.36 19.006 93.535 C 0.0 **** 0.0
33602 H 34.697 18.793 92.697 H 0.0 **** 0.0
33603 H 35.351 20.076 93.743 H 0.0 **** 0.0
33604 H 36.374 18.693 93.284 H 0.0 **** 0.0
33605 H 35.019 18.461 94.415 H 0.0 **** 0.0
33606 C 83.837 66.765 18.362 C 0.0 **** 0.0
33607 H 83.27 66.054 18.964 H 0.0 **** 0.0
33608 H 83.805 66.46 17.315 H 0.0 **** 0.0
33609 H 84.871 66.786 18.703 H 0.0 **** 0.0
33610 H 83.399 67.758 18.465 H 0.0 **** 0.0
33611 C 34.453 38.903 35.549 C 0.0 **** 0.0
33612 H 34.674 38.953 34.483 H 0.0 **** 0.0
33613 H 34.053 37.918 35.791 H 0.0 **** 0.0
33614 H 33.719 39.667 35.804 H 0.0 **** 0.0
33615 H 35.368 39.073 36.118 H 0.0 **** 0.0
33616 C 68.021 60.648 58.084 C 0.0 **** 0.0
33617 H 68.611 60.727 57.17 H 0.0 **** 0.0
33618 H 67.417 59.741 58.049 H 0.0 **** 0.0
33619 H 67.369 61.517 58.171 H 0.0 **** 0.0
33620 H 68.689 60.607 58.944 H 0.0 **** 0.0
33621 C 38.193 4.832 87.498 C 0.0 **** 0.0
33622 H 37.769 4.019 86.909 H 0.0 **** 0.0
33623 H 37.433 5.596 87.662 H 0.0 **** 0.0
33624 H 39.037 5.267 86.962 H 0.0 **** 0.0
33625 H 38.534 4.445 88.459 H 0.0 **** 0.0
33626 C 96.089 22.252 64.052 C 0.0 **** 0.0
33627 H 96.272 22.186 62.979 H 0.0 **** 0.0
33628 H 95.996 23.299 64.34 H 0.0 **** 0.0
33629 H 96.922 21.799 64.59 H 0.0 **** 0.0
33630 H 95.168 21.723 64.296 H 0.0 **** 0.0
33631 C 30.593 46.108 60.773 C 0.0 **** 0.0
33632 H 29.662 45.603 61.03 H 0.0 **** 0.0
33633 H 30.435 46.737 59.897 H 0.0 **** 0.0
33634 H 31.361 45.365 60.555 H 0.0 **** 0.0
33635 H 30.914 46.727 61.611 H 0.0 **** 0.0
33636 C 86.367 1.862 3.782 C 0.0 **** 0.0
33637 H 86.798 2.233 2.852 H 0.0 **** 0.0
33638 H 85.764 2.646 4.241 H 0.0 **** 0.0
33639 H 87.168 1.572 4.463 H 0.0 **** 0.0
33640 H 85.739 0.996 3.571 H 0.0 **** 0.0
33641 C 96.907 37.684 66.722 C 0.0 **** 0.0
33642 H 96.573 37.916 67.733 H 0.0 **** 0.0
33643 H 97.85 37.139 66.768 H 0.0 **** 0.0
33644 H 97.05 38.61 66.165 H 0.0 **** 0.0
33645 H 96.156 37.072 66.223 H 0.0 **** 0.0
33646 C 1.137 54.264 76.649 C 0.0 **** 0.0
33647 H 0.975 54.511 75.6 H 0.0 **** 0.0
33648 H 0.966 53.198 76.802 H 0.0 **** 0.0
33649 H 0.446 54.836 77.269 H 0.0 **** 0.0
33650 H 2.163 54.511 76.926 H 0.0 **** 0.0
33651 C 71.438 16.489 43.041 C 0.0 **** 0.0
33652 H 72.332 16.19 43.587 H 0.0 **** 0.0
33653 H 71.691 17.278 42.333 H 0.0 **** 0.0
33654 H 70.69 16.857 43.743 H 0.0 **** 0.0
33655 H 71.038 15.63 42.501 H 0.0 **** 0.0
33656 C 97.838 47.028 60.514 C 0.0 **** 0.0
33657 H 97.929 47.111 61.597 H 0.0 **** 0.0
33658 H 98.527 46.265 60.15 H 0.0 **** 0.0
33659 H 98.081 47.986 60.055 H 0.0 **** 0.0
33660 H 96.817 46.749 60.256 H 0.0 **** 0.0
33661 C 32.982 70.346 13.882 C 0.0 **** 0.0
33662 H 32.836 69.266 13.9 H 0.0 **** 0.0
33663 H 34.05 70.567 13.871 H 0.0 **** 0.0
33664 H 32.528 70.789 14.768 H 0.0 **** 0.0
33665 H 32.515 70.76 12.988 H 0.0 **** 0.0
33666 C 31.596 41.171 19.072 C 0.0 **** 0.0
33667 H 32.37 41.502 18.379 H 0.0 **** 0.0
33668 H 31.099 40.289 18.667 H 0.0 **** 0.0
33669 H 30.866 41.969 19.209 H 0.0 **** 0.0
33670 H 32.05 40.925 20.032 H 0.0 **** 0.0
33671 C 64.741 71.865 44.348 C 0.0 **** 0.0
33672 H 64.969 72.709 44.998 H 0.0 **** 0.0
33673 H 63.786 72.038 43.851 H 0.0 **** 0.0
33674 H 64.681 70.954 44.944 H 0.0 **** 0.0
33675 H 65.527 71.759 43.601 H 0.0 **** 0.0
33676 C 26.374 71.975 8.637 C 0.0 **** 0.0
33677 H 26.403 72.041 7.55 H 0.0 **** 0.0
33678 H 26.839 71.041 8.956 H 0.0 **** 0.0
33679 H 25.338 72.0 8.975 H 0.0 **** 0.0
33680 H 26.917 72.817 9.067 H 0.0 **** 0.0
33681 C 21.95 26.888 44.581 C 0.0 **** 0.0
33682 H 22.141 27.892 44.96 H 0.0 **** 0.0
33683 H 22.262 26.154 45.325 H 0.0 **** 0.0
33684 H 22.512 26.735 43.66 H 0.0 **** 0.0
33685 H 20.885 26.772 44.381 H 0.0 **** 0.0
33686 C 89.212 16.69 10.501 C 0.0 **** 0.0
33687 H 89.059 17.661 10.029 H 0.0 **** 0.0
33688 H 89.15 16.799 11.584 H 0.0 **** 0.0
33689 H 90.195 16.306 10.229 H 0.0 **** 0.0
33690 H 88.443 15.996 10.16 H 0.0 **** 0.0
33691 C 13.846 76.09 32.9 C 0.0 **** 0.0
33692 H 13.928 76.078 31.813 H 0.0 **** 0.0
33693 H 13.721 75.071 33.266 H 0.0 **** 0.0
33694 H 12.983 76.69 33.192 H 0.0 **** 0.0
33695 H 14.75 76.522 33.328 H 0.0 **** 0.0
33696 C 48.631 76.988 10.332 C 0.0 **** 0.0
33697 H 48.942 77.61 9.492 H 0.0 **** 0.0
33698 H 49.381 76.217 10.51 H 0.0 **** 0.0
33699 H 47.675 76.519 10.1 H 0.0 **** 0.0
33700 H 48.526 77.607 11.223 H 0.0 **** 0.0
33701 C 71.07 58.46 3.26 C 0.0 **** 0.0
33702 H 70.961 58.397 2.178 H 0.0 **** 0.0
33703 H 72.073 58.811 3.504 H 0.0 **** 0.0
33704 H 70.912 57.475 3.699 H 0.0 **** 0.0
33705 H 70.334 59.158 3.659 H 0.0 **** 0.0
33706 C 80.497 51.05 12.019 C 0.0 **** 0.0
33707 H 80.098 51.215 11.018 H 0.0 **** 0.0
33708 H 81.449 50.524 11.948 H 0.0 **** 0.0
33709 H 79.793 50.451 12.596 H 0.0 **** 0.0
33710 H 80.647 52.011 12.512 H 0.0 **** 0.0
33711 C 45.236 85.274 72.111 C 0.0 **** 0.0
33712 H 44.471 86.051 72.102 H 0.0 **** 0.0
33713 H 45.98 85.505 72.873 H 0.0 **** 0.0
33714 H 45.717 85.227 71.134 H 0.0 **** 0.0
33715 H 44.773 84.312 72.334 H 0.0 **** 0.0
33716 C 77.353 1.89 80.793 C 0.0 **** 0.0
33717 H 78.321 2.07 81.26 H 0.0 **** 0.0
33718 H 77.0 0.895 81.061 H 0.0 **** 0.0
33719 H 77.454 1.961 79.71 H 0.0 **** 0.0
33720 H 76.638 2.636 81.14 H 0.0 **** 0.0
33721 C 5.222 75.251 60.425 C 0.0 **** 0.0
33722 H 6.081 75.512 59.808 H 0.0 **** 0.0
33723 H 5.505 75.293 61.477 H 0.0 **** 0.0
33724 H 4.89 74.242 60.178 H 0.0 **** 0.0
33725 H 4.413 75.956 60.237 H 0.0 **** 0.0
33726 C 4.498 8.059 30.274 C 0.0 **** 0.0
33727 H 4.127 7.09 29.939 H 0.0 **** 0.0
33728 H 4.423 8.778 29.459 H 0.0 **** 0.0
33729 H 5.54 7.963 30.58 H 0.0 **** 0.0
33730 H 3.902 8.403 31.119 H 0.0 **** 0.0
33731 C 87.084 44.938 68.641 C 0.0 **** 0.0
33732 H 86.953 43.896 68.935 H 0.0 **** 0.0
33733 H 87.983 45.032 68.032 H 0.0 **** 0.0
33734 H 87.182 45.558 69.532 H 0.0 **** 0.0
33735 H 86.218 45.263 68.064 H 0.0 **** 0.0
33736 C 72.29 61.571 16.52 C 0.0 **** 0.0
33737 H 72.288 62.353 15.761 H 0.0 **** 0.0
33738 H 72.34 62.026 17.51 H 0.0 **** 0.0
33739 H 73.156 60.924 16.373 H 0.0 **** 0.0
33740 H 71.378 60.981 16.437 H 0.0 **** 0.0
33741 C 47.464 16.831 12.071 C 0.0 **** 0.0
33742 H 48.171 17.08 12.861 H 0.0 **** 0.0
33743 H 46.615 17.513 12.115 H 0.0 **** 0.0
33744 H 47.116 15.807 12.205 H 0.0 **** 0.0
33745 H 47.955 16.924 11.102 H 0.0 **** 0.0
33746 C 92.185 32.352 8.183 C 0.0 **** 0.0
33747 H 92.992 33.07 8.324 H 0.0 **** 0.0
33748 H 91.623 32.609 7.285 H 0.0 **** 0.0
33749 H 91.521 32.377 9.048 H 0.0 **** 0.0
33750 H 92.604 31.351 8.076 H 0.0 **** 0.0
33751 C 74.93 93.554 30.941 C 0.0 **** 0.0
33752 H 75.716 94.274 30.712 H 0.0 **** 0.0
33753 H 74.836 93.452 32.022 H 0.0 **** 0.0
33754 H 75.185 92.588 30.505 H 0.0 **** 0.0
33755 H 73.985 93.902 30.525 H 0.0 **** 0.0
33756 C 29.402 72.59 26.109 C 0.0 **** 0.0
33757 H 29.518 72.086 25.15 H 0.0 **** 0.0
33758 H 28.566 73.288 26.054 H 0.0 **** 0.0
33759 H 30.316 73.135 26.346 H 0.0 **** 0.0
33760 H 29.208 71.851 26.887 H 0.0 **** 0.0
33761 C 39.949 11.562 83.141 C 0.0 **** 0.0
33762 H 39.972 11.558 82.051 H 0.0 **** 0.0
33763 H 40.954 11.74 83.525 H 0.0 **** 0.0
33764 H 39.588 10.598 83.5 H 0.0 **** 0.0
33765 H 39.282 12.352 83.487 H 0.0 **** 0.0
33766 C 18.222 65.897 81.796 C 0.0 **** 0.0
33767 H 18.168 66.776 82.438 H 0.0 **** 0.0
33768 H 19.106 65.313 82.054 H 0.0 **** 0.0
33769 H 18.285 66.211 80.754 H 0.0 **** 0.0
33770 H 17.329 65.288 81.939 H 0.0 **** 0.0
33771 C 55.454 37.205 19.443 C 0.0 **** 0.0
33772 H 55.554 37.18 20.529 H 0.0 **** 0.0
33773 H 54.492 37.644 19.177 H 0.0 **** 0.0
33774 H 55.512 36.19 19.05 H 0.0 **** 0.0
33775 H 56.258 37.806 19.019 H 0.0 **** 0.0
33776 C 20.033 92.909 57.854 C 0.0 **** 0.0
33777 H 21.089 93.097 57.663 H 0.0 **** 0.0
33778 H 19.92 91.946 58.353 H 0.0 **** 0.0
33779 H 19.49 92.896 56.91 H 0.0 **** 0.0
33780 H 19.634 93.698 58.492 H 0.0 **** 0.0
33781 C 63.135 67.085 13.106 C 0.0 **** 0.0
33782 H 63.224 66.908 12.034 H 0.0 **** 0.0
33783 H 64.129 67.123 13.552 H 0.0 **** 0.0
33784 H 62.563 66.276 13.561 H 0.0 **** 0.0
33785 H 62.623 68.032 13.276 H 0.0 **** 0.0
33786 C 33.207 83.465 55.202 C 0.0 **** 0.0
33787 H 33.339 84.521 55.437 H 0.0 **** 0.0
33788 H 33.368 82.87 56.102 H 0.0 **** 0.0
33789 H 33.926 83.171 54.438 H 0.0 **** 0.0
33790 H 32.195 83.299 54.833 H 0.0 **** 0.0
33791 C 34.265 37.137 16.722 C 0.0 **** 0.0
33792 H 33.9 37.29 15.707 H 0.0 **** 0.0
33793 H 34.124 36.094 17.006 H 0.0 **** 0.0
33794 H 33.711 37.779 17.407 H 0.0 **** 0.0
33795 H 35.325 37.386 16.768 H 0.0 **** 0.0
33796 C 36.905 60.659 24.977 C 0.0 **** 0.0
33797 H 37.074 61.131 24.01 H 0.0 **** 0.0
33798 H 37.359 61.265 25.762 H 0.0 **** 0.0
33799 H 37.353 59.666 24.98 H 0.0 **** 0.0
33800 H 35.833 60.575 25.158 H 0.0 **** 0.0
33801 C 44.565 64.826 58.149 C 0.0 **** 0.0
33802 H 45.169 63.919 58.168 H 0.0 **** 0.0
33803 H 45.073 65.589 57.559 H 0.0 **** 0.0
33804 H 44.423 65.188 59.167 H 0.0 **** 0.0
33805 H 43.595 64.606 57.702 H 0.0 **** 0.0
33806 C 46.603 9.524 89.091 C 0.0 **** 0.0
33807 H 46.573 10.541 89.482 H 0.0 **** 0.0
33808 H 45.809 8.935 89.549 H 0.0 **** 0.0
33809 H 47.569 9.075 89.323 H 0.0 **** 0.0
33810 H 46.463 9.546 88.01 H 0.0 **** 0.0
33811 C 61.883 0.932 90.704 C 0.0 **** 0.0
33812 H 61.054 0.781 90.012 H 0.0 **** 0.0
33813 H 61.491 1.15 91.697 H 0.0 **** 0.0
33814 H 62.493 1.768 90.362 H 0.0 **** 0.0
33815 H 62.493 0.03 90.743 H 0.0 **** 0.0
33816 C 34.967 7.355 59.204 C 0.0 **** 0.0
33817 H 34.557 6.956 60.131 H 0.0 **** 0.0
33818 H 35.648 8.176 59.431 H 0.0 **** 0.0
33819 H 34.155 7.719 58.575 H 0.0 **** 0.0
33820 H 35.509 6.568 58.679 H 0.0 **** 0.0
33821 C 75.155 13.942 70.296 C 0.0 **** 0.0
33822 H 75.445 13.671 69.281 H 0.0 **** 0.0
33823 H 74.171 13.526 70.516 H 0.0 **** 0.0
33824 H 75.119 15.028 70.386 H 0.0 **** 0.0
33825 H 75.884 13.543 71.001 H 0.0 **** 0.0
33826 C 74.977 19.758 35.799 C 0.0 **** 0.0
33827 H 74.957 18.74 35.411 H 0.0 **** 0.0
33828 H 75.232 19.738 36.859 H 0.0 **** 0.0
33829 H 73.996 20.215 35.67 H 0.0 **** 0.0
33830 H 75.722 20.339 35.256 H 0.0 **** 0.0
33831 C 52.525 80.639 66.372 C 0.0 **** 0.0
33832 H 51.874 80.443 65.52 H 0.0 **** 0.0
33833 H 53.55 80.375 66.114 H 0.0 **** 0.0
33834 H 52.198 80.043 67.224 H 0.0 **** 0.0
33835 H 52.476 81.697 66.63 H 0.0 **** 0.0
33836 C 80.029 4.856 1.099 C 0.0 **** 0.0
33837 H 81.04 4.786 1.501 H 0.0 **** 0.0
33838 H 79.593 5.815 1.378 H 0.0 **** 0.0
33839 H 79.42 4.048 1.505 H 0.0 **** 0.0
33840 H 80.064 4.774 0.012 H 0.0 **** 0.0
33841 C 53.15 73.562 23.434 C 0.0 **** 0.0
33842 H 52.526 74.109 24.14 H 0.0 **** 0.0
33843 H 52.747 72.559 23.294 H 0.0 **** 0.0
33844 H 54.166 73.495 23.824 H 0.0 **** 0.0
33845 H 53.162 74.086 22.478 H 0.0 **** 0.0
33846 C 52.238 65.52 21.555 C 0.0 **** 0.0
33847 H 52.419 64.916 20.666 H 0.0 **** 0.0
33848 H 51.81 64.894 22.338 H 0.0 **** 0.0
33849 H 51.545 66.325 21.312 H 0.0 **** 0.0
33850 H 53.18 65.944 21.903 H 0.0 **** 0.0
33851 C 1.543 61.835 72.554 C 0.0 **** 0.0
33852 H 1.645 61.381 71.569 H 0.0 **** 0.0
33853 H 2.135 61.272 73.276 H 0.0 **** 0.0
33854 H 0.495 61.821 72.854 H 0.0 **** 0.0
33855 H 1.896 62.865 72.518 H 0.0 **** 0.0
33856 C 96.998 58.2 91.237 C 0.0 **** 0.0
33857 H 97.14 57.398 91.962 H 0.0 **** 0.0
33858 H 95.968 58.553 91.284 H 0.0 **** 0.0
33859 H 97.208 57.825 90.235 H 0.0 **** 0.0
33860 H 97.675 59.022 91.468 H 0.0 **** 0.0
33861 C 56.214 6.126 58.667 C 0.0 **** 0.0
33862 H 56.293 6.495 59.689 H 0.0 **** 0.0
33863 H 57.206 5.87 58.295 H 0.0 **** 0.0
33864 H 55.777 6.899 58.034 H 0.0 **** 0.0
33865 H 55.578 5.241 58.648 H 0.0 **** 0.0
33866 C 88.94 82.317 77.227 C 0.0 **** 0.0
33867 H 88.889 81.243 77.048 H 0.0 **** 0.0
33868 H 89.511 82.792 76.43 H 0.0 **** 0.0
33869 H 89.427 82.502 78.184 H 0.0 **** 0.0
33870 H 87.931 82.73 77.247 H 0.0 **** 0.0
33871 C 30.296 97.189 7.285 C 0.0 **** 0.0
33872 H 29.848 97.682 8.148 H 0.0 **** 0.0
33873 H 30.067 96.124 7.317 H 0.0 **** 0.0
33874 H 31.377 97.329 7.308 H 0.0 **** 0.0
33875 H 29.892 97.621 6.37 H 0.0 **** 0.0
33876 C 85.687 7.693 64.143 C 0.0 **** 0.0
33877 H 86.403 7.644 64.963 H 0.0 **** 0.0
33878 H 86.191 8.04 63.241 H 0.0 **** 0.0
33879 H 84.886 8.387 64.402 H 0.0 **** 0.0
33880 H 85.267 6.703 63.968 H 0.0 **** 0.0
33881 C 75.889 63.401 36.162 C 0.0 **** 0.0
33882 H 76.171 64.156 36.897 H 0.0 **** 0.0
33883 H 75.874 63.85 35.168 H 0.0 **** 0.0
33884 H 74.899 63.014 36.401 H 0.0 **** 0.0
33885 H 76.613 62.586 36.182 H 0.0 **** 0.0
33886 C 3.656 82.803 71.916 C 0.0 **** 0.0
33887 H 3.957 82.476 70.921 H 0.0 **** 0.0
33888 H 2.906 82.117 72.312 H 0.0 **** 0.0
33889 H 3.235 83.806 71.857 H 0.0 **** 0.0
33890 H 4.525 82.811 72.574 H 0.0 **** 0.0
33891 C 49.476 92.328 16.99 C 0.0 **** 0.0
33892 H 49.969 92.927 16.225 H 0.0 **** 0.0
33893 H 48.544 92.811 17.285 H 0.0 **** 0.0
33894 H 50.129 92.237 17.857 H 0.0 **** 0.0
33895 H 49.26 91.336 16.591 H 0.0 **** 0.0
33896 C 4.396 7.764 68.699 C 0.0 **** 0.0
33897 H 4.431 8.158 67.683 H 0.0 **** 0.0
33898 H 3.983 8.519 69.367 H 0.0 **** 0.0
33899 H 5.404 7.503 69.022 H 0.0 **** 0.0
33900 H 3.765 6.875 68.722 H 0.0 **** 0.0
33901 C 31.541 40.512 46.787 C 0.0 **** 0.0
33902 H 30.98 40.809 45.901 H 0.0 **** 0.0
33903 H 31.126 41.01 47.663 H 0.0 **** 0.0
33904 H 32.586 40.798 46.667 H 0.0 **** 0.0
33905 H 31.472 39.432 46.915 H 0.0 **** 0.0
33906 C 30.985 8.728 10.543 C 0.0 **** 0.0
33907 H 31.097 8.624 9.464 H 0.0 **** 0.0
33908 H 31.868 8.326 11.04 H 0.0 **** 0.0
33909 H 30.102 8.178 10.871 H 0.0 **** 0.0
33910 H 30.872 9.781 10.797 H 0.0 **** 0.0
33911 C 9.097 65.278 37.383 C 0.0 **** 0.0
33912 H 8.007 65.299 37.384 H 0.0 **** 0.0
33913 H 9.442 64.297 37.711 H 0.0 **** 0.0
33914 H 9.475 66.043 38.061 H 0.0 **** 0.0
33915 H 9.463 65.473 36.375 H 0.0 **** 0.0
33916 C 27.997 53.106 55.399 C 0.0 **** 0.0
33917 H 27.622 52.128 55.098 H 0.0 **** 0.0
33918 H 28.266 53.084 56.455 H 0.0 **** 0.0
33919 H 27.225 53.858 55.236 H 0.0 **** 0.0
33920 H 28.877 53.355 54.805 H 0.0 **** 0.0
33921 C 1.913 93.561 87.415 C 0.0 **** 0.0
33922 H 1.594 92.81 88.137 H 0.0 **** 0.0
33923 H 1.053 94.155 87.105 H 0.0 **** 0.0
33924 H 2.346 93.068 86.545 H 0.0 **** 0.0
33925 H 2.659 94.211 87.872 H 0.0 **** 0.0
33926 C 19.367 40.506 29.362 C 0.0 **** 0.0
33927 H 19.037 40.365 28.332 H 0.0 **** 0.0
33928 H 20.243 41.154 29.377 H 0.0 **** 0.0
33929 H 19.621 39.54 29.797 H 0.0 **** 0.0
33930 H 18.564 40.965 29.94 H 0.0 **** 0.0
33931 C 9.736 38.347 9.232 C 0.0 **** 0.0
33932 H 9.42 39.321 9.607 H 0.0 **** 0.0
33933 H 9.045 38.015 8.457 H 0.0 **** 0.0
33934 H 9.738 37.627 10.05 H 0.0 **** 0.0
33935 H 10.74 38.427 8.816 H 0.0 **** 0.0
33936 C 75.19 85.89 85.856 C 0.0 **** 0.0
33937 H 75.1 85.882 86.942 H 0.0 **** 0.0
33938 H 75.392 84.879 85.501 H 0.0 **** 0.0
33939 H 76.009 86.548 85.565 H 0.0 **** 0.0
33940 H 74.26 86.251 85.417 H 0.0 **** 0.0
33941 C 42.192 42.37 72.481 C 0.0 **** 0.0
33942 H 42.49 42.635 73.495 H 0.0 **** 0.0
33943 H 41.61 43.185 72.049 H 0.0 **** 0.0
33944 H 41.587 41.464 72.505 H 0.0 **** 0.0
33945 H 43.081 42.198 71.874 H 0.0 **** 0.0
33946 C 47.953 67.041 7.516 C 0.0 **** 0.0
33947 H 47.329 67.159 8.403 H 0.0 **** 0.0
33948 H 47.899 67.947 6.912 H 0.0 **** 0.0
33949 H 47.596 66.193 6.932 H 0.0 **** 0.0
33950 H 48.985 66.866 7.819 H 0.0 **** 0.0
33951 C 64.739 43.166 87.879 C 0.0 **** 0.0
33952 H 65.462 43.61 88.563 H 0.0 **** 0.0
33953 H 63.886 42.792 88.445 H 0.0 **** 0.0
33954 H 65.208 42.341 87.341 H 0.0 **** 0.0
33955 H 64.402 43.919 87.167 H 0.0 **** 0.0
33956 C 96.564 64.541 80.208 C 0.0 **** 0.0
33957 H 95.991 64.477 81.133 H 0.0 **** 0.0
33958 H 96.901 65.567 80.061 H 0.0 **** 0.0
33959 H 95.935 64.241 79.37 H 0.0 **** 0.0
33960 H 97.428 63.88 80.269 H 0.0 **** 0.0
33961 C 43.434 40.311 81.28 C 0.0 **** 0.0
33962 H 42.404 40.459 80.956 H 0.0 **** 0.0
33963 H 44.049 41.139 80.925 H 0.0 **** 0.0
33964 H 43.813 39.375 80.87 H 0.0 **** 0.0
33965 H 43.471 40.272 82.369 H 0.0 **** 0.0
33966 C 89.976 52.525 61.574 C 0.0 **** 0.0
33967 H 90.348 53.158 62.379 H 0.0 **** 0.0
33968 H 90.338 51.506 61.716 H 0.0 **** 0.0
33969 H 90.332 52.907 60.617 H 0.0 **** 0.0
33970 H 88.886 52.528 61.584 H 0.0 **** 0.0
33971 C 34.422 76.765 62.198 C 0.0 **** 0.0
33972 H 34.668 77.3 63.115 H 0.0 **** 0.0
33973 H 34.738 75.725 62.288 H 0.0 **** 0.0
33974 H 34.938 77.23 61.357 H 0.0 **** 0.0
33975 H 33.346 76.805 62.031 H 0.0 **** 0.0
33976 C 28.711 57.624 90.589 C 0.0 **** 0.0
33977 H 28.819 58.557 90.035 H 0.0 **** 0.0
33978 H 28.284 56.862 89.937 H 0.0 **** 0.0
33979 H 28.053 57.783 91.443 H 0.0 **** 0.0
33980 H 29.69 57.296 90.94 H 0.0 **** 0.0
33981 C 97.585 24.285 2.635 C 0.0 **** 0.0
33982 H 98.056 24.764 1.776 H 0.0 **** 0.0
33983 H 98.337 23.732 3.199 H 0.0 **** 0.0
33984 H 96.812 23.599 2.289 H 0.0 **** 0.0
33985 H 97.137 25.046 3.274 H 0.0 **** 0.0
33986 C 41.644 81.898 44.426 C 0.0 **** 0.0
33987 H 41.762 81.075 45.131 H 0.0 **** 0.0
33988 H 42.306 81.743 43.573 H 0.0 **** 0.0
33989 H 41.898 82.837 44.917 H 0.0 **** 0.0
33990 H 40.611 81.935 44.081 H 0.0 **** 0.0
33991 C 34.419 32.241 63.506 C 0.0 **** 0.0
33992 H 33.412 32.348 63.909 H 0.0 **** 0.0
33993 H 34.645 31.183 63.371 H 0.0 **** 0.0
33994 H 35.136 32.681 64.2 H 0.0 **** 0.0
33995 H 34.483 32.752 62.546 H 0.0 **** 0.0
33996 C 45.731 39.164 5.78 C 0.0 **** 0.0
33997 H 45.402 39.723 4.903 H 0.0 **** 0.0
33998 H 46.292 38.286 5.461 H 0.0 **** 0.0
33999 H 44.861 38.85 6.356 H 0.0 **** 0.0
34000 H 46.366 39.798 6.397 H 0.0 **** 0.0
34001 C 79.387 50.753 1.982 C 0.0 **** 0.0
34002 H 80.089 51.563 1.784 H 0.0 **** 0.0
34003 H 79.413 50.041 1.157 H 0.0 **** 0.0
34004 H 78.38 51.16 2.079 H 0.0 **** 0.0
34005 H 79.665 50.248 2.907 H 0.0 **** 0.0
34006 C 81.491 72.024 25.582 C 0.0 **** 0.0
34007 H 81.146 72.026 26.616 H 0.0 **** 0.0
34008 H 81.111 72.909 25.071 H 0.0 **** 0.0
34009 H 81.126 71.129 25.079 H 0.0 **** 0.0
34010 H 82.581 72.033 25.563 H 0.0 **** 0.0
34011 C 0.851 96.125 50.874 C 0.0 **** 0.0
34012 H 1.339 97.084 50.705 H 0.0 **** 0.0
34013 H 0.505 96.07 51.906 H 0.0 **** 0.0
34014 H 1.559 95.319 50.684 H 0.0 **** 0.0
34015 H 0.0 96.027 50.199 H 0.0 **** 0.0
34016 C 74.681 7.118 57.315 C 0.0 **** 0.0
34017 H 75.646 7.246 57.805 H 0.0 **** 0.0
34018 H 73.994 6.61 57.992 H 0.0 **** 0.0
34019 H 74.809 6.522 56.411 H 0.0 **** 0.0
34020 H 74.275 8.095 57.051 H 0.0 **** 0.0
34021 C 75.635 15.498 32.367 C 0.0 **** 0.0
34022 H 74.733 15.902 32.828 H 0.0 **** 0.0
34023 H 76.155 16.292 31.831 H 0.0 **** 0.0
34024 H 75.363 14.706 31.67 H 0.0 **** 0.0
34025 H 76.288 15.094 33.14 H 0.0 **** 0.0
34026 C 6.464 20.31 32.883 C 0.0 **** 0.0
34027 H 7.452 20.717 33.1 H 0.0 **** 0.0
34028 H 6.516 19.693 31.985 H 0.0 **** 0.0
34029 H 5.761 21.127 32.723 H 0.0 **** 0.0
34030 H 6.129 19.702 33.723 H 0.0 **** 0.0
34031 C 77.646 49.167 21.36 C 0.0 **** 0.0
34032 H 76.996 49.965 21.0 H 0.0 **** 0.0
34033 H 78.655 49.555 21.5 H 0.0 **** 0.0
34034 H 77.665 48.358 20.631 H 0.0 **** 0.0
34035 H 77.266 48.791 22.311 H 0.0 **** 0.0
34036 C 35.319 65.247 16.946 C 0.0 **** 0.0
34037 H 34.985 64.885 15.974 H 0.0 **** 0.0
34038 H 35.968 66.112 16.809 H 0.0 **** 0.0
34039 H 35.868 64.457 17.458 H 0.0 **** 0.0
34040 H 34.453 65.533 17.544 H 0.0 **** 0.0
34041 C 79.944 42.651 18.46 C 0.0 **** 0.0
34042 H 79.865 42.722 19.544 H 0.0 **** 0.0
34043 H 80.232 41.637 18.182 H 0.0 **** 0.0
34044 H 80.697 43.354 18.104 H 0.0 **** 0.0
34045 H 78.981 42.892 18.009 H 0.0 **** 0.0
34046 C 97.372 89.157 87.548 C 0.0 **** 0.0
34047 H 97.105 89.95 86.848 H 0.0 **** 0.0
34048 H 96.49 88.555 87.766 H 0.0 **** 0.0
34049 H 97.748 89.599 88.47 H 0.0 **** 0.0
34050 H 98.143 88.527 87.105 H 0.0 **** 0.0
34051 C 47.066 93.358 82.189 C 0.0 **** 0.0
34052 H 47.149 94.299 81.645 H 0.0 **** 0.0
34053 H 46.196 92.807 81.83 H 0.0 **** 0.0
34054 H 46.952 93.563 83.253 H 0.0 **** 0.0
34055 H 47.965 92.764 82.027 H 0.0 **** 0.0
34056 C 54.457 66.036 76.27 C 0.0 **** 0.0
34057 H 54.521 66.089 77.356 H 0.0 **** 0.0
34058 H 53.785 65.226 75.984 H 0.0 **** 0.0
34059 H 55.449 65.848 75.857 H 0.0 **** 0.0
34060 H 54.075 66.98 75.882 H 0.0 **** 0.0
34061 C 61.642 44.998 27.958 C 0.0 **** 0.0
34062 H 61.899 45.412 26.983 H 0.0 **** 0.0
34063 H 61.779 43.917 27.941 H 0.0 **** 0.0
34064 H 60.603 45.23 28.189 H 0.0 **** 0.0
34065 H 62.289 45.434 28.719 H 0.0 **** 0.0
34066 C 79.022 81.791 67.732 C 0.0 **** 0.0
34067 H 79.17 82.171 66.721 H 0.0 **** 0.0
34068 H 78.901 80.708 67.698 H 0.0 **** 0.0
34069 H 78.129 82.243 68.163 H 0.0 **** 0.0
34070 H 79.888 82.041 68.344 H 0.0 **** 0.0
34071 C 16.902 28.879 7.511 C 0.0 **** 0.0
34072 H 17.177 27.993 8.082 H 0.0 **** 0.0
34073 H 16.148 29.445 8.059 H 0.0 **** 0.0
34074 H 16.498 28.578 6.544 H 0.0 **** 0.0
34075 H 17.784 29.501 7.359 H 0.0 **** 0.0
34076 C 82.837 10.914 74.637 C 0.0 **** 0.0
34077 H 83.196 11.436 73.75 H 0.0 **** 0.0
34078 H 83.075 11.501 75.524 H 0.0 **** 0.0
34079 H 83.321 9.94 74.705 H 0.0 **** 0.0
34080 H 81.758 10.78 74.567 H 0.0 **** 0.0
34081 C 32.628 30.925 29.605 C 0.0 **** 0.0
34082 H 32.667 30.055 28.95 H 0.0 **** 0.0
34083 H 32.372 30.607 30.616 H 0.0 **** 0.0
34084 H 31.872 31.62 29.24 H 0.0 **** 0.0
34085 H 33.6 31.417 29.613 H 0.0 **** 0.0
34086 C 67.629 80.754 69.353 C 0.0 **** 0.0
34087 H 67.56 80.789 68.266 H 0.0 **** 0.0
34088 H 68.678 80.716 69.649 H 0.0 **** 0.0
34089 H 67.115 79.865 69.721 H 0.0 **** 0.0
34090 H 67.163 81.644 69.776 H 0.0 **** 0.0
34091 C 76.753 83.186 8.535 C 0.0 **** 0.0
34092 H 75.742 82.897 8.25 H 0.0 **** 0.0
34093 H 76.953 82.852 9.554 H 0.0 **** 0.0
34094 H 76.849 84.271 8.483 H 0.0 **** 0.0
34095 H 77.469 82.725 7.855 H 0.0 **** 0.0
34096 C 39.24 30.291 96.686 C 0.0 **** 0.0
34097 H 40.279 30.062 96.924 H 0.0 **** 0.0
34098 H 38.829 29.501 96.057 H 0.0 **** 0.0
34099 H 39.19 31.242 96.155 H 0.0 **** 0.0
34100 H 38.663 30.359 97.609 H 0.0 **** 0.0
34101 C 54.801 35.844 82.692 C 0.0 **** 0.0
34102 H 53.827 35.859 82.204 H 0.0 **** 0.0
34103 H 55.326 36.776 82.483 H 0.0 **** 0.0
34104 H 55.385 35.005 82.313 H 0.0 **** 0.0
34105 H 54.667 35.736 83.768 H 0.0 **** 0.0
34106 C 44.065 62.663 87.243 C 0.0 **** 0.0
34107 H 44.206 62.819 86.173 H 0.0 **** 0.0
34108 H 43.184 63.211 87.576 H 0.0 **** 0.0
34109 H 44.943 63.022 87.78 H 0.0 **** 0.0
34110 H 43.928 61.6 87.44 H 0.0 **** 0.0
34111 C 41.62 95.531 85.746 C 0.0 **** 0.0
34112 H 42.011 96.079 84.89 H 0.0 **** 0.0
34113 H 40.627 95.907 85.995 H 0.0 **** 0.0
34114 H 42.285 95.666 86.599 H 0.0 **** 0.0
34115 H 41.556 94.471 85.501 H 0.0 **** 0.0
34116 C 79.247 64.767 28.606 C 0.0 **** 0.0
34117 H 79.51 63.712 28.526 H 0.0 **** 0.0
34118 H 78.583 65.039 27.786 H 0.0 **** 0.0
34119 H 80.152 65.372 28.558 H 0.0 **** 0.0
34120 H 78.742 64.944 29.557 H 0.0 **** 0.0
34121 C 76.601 59.669 89.684 C 0.0 **** 0.0
34122 H 76.892 59.158 88.766 H 0.0 **** 0.0
34123 H 77.398 60.348 89.989 H 0.0 **** 0.0
34124 H 76.43 58.933 90.47 H 0.0 **** 0.0
34125 H 75.686 60.235 89.51 H 0.0 **** 0.0
34126 C 86.293 75.66 43.374 C 0.0 **** 0.0
34127 H 85.403 75.567 43.997 H 0.0 **** 0.0
34128 H 87.164 75.83 44.008 H 0.0 **** 0.0
34129 H 86.172 76.499 42.69 H 0.0 **** 0.0
34130 H 86.433 74.742 42.802 H 0.0 **** 0.0
34131 C 18.283 87.438 69.631 C 0.0 **** 0.0
34132 H 18.269 87.414 68.541 H 0.0 **** 0.0
34133 H 19.308 87.57 69.978 H 0.0 **** 0.0
34134 H 17.885 86.501 70.02 H 0.0 **** 0.0
34135 H 17.67 88.268 69.983 H 0.0 **** 0.0
34136 C 51.145 23.625 74.003 C 0.0 **** 0.0
34137 H 50.798 23.056 73.141 H 0.0 **** 0.0
34138 H 52.231 23.721 73.961 H 0.0 **** 0.0
34139 H 50.861 23.107 74.919 H 0.0 **** 0.0
34140 H 50.692 24.616 73.99 H 0.0 **** 0.0
34141 C 70.445 88.768 39.575 C 0.0 **** 0.0
34142 H 69.754 89.526 39.945 H 0.0 **** 0.0
34143 H 71.235 88.609 40.309 H 0.0 **** 0.0
34144 H 70.883 89.104 38.636 H 0.0 **** 0.0
34145 H 69.906 87.835 39.412 H 0.0 **** 0.0
34146 C 7.829 65.391 67.448 C 0.0 **** 0.0
34147 H 7.764 64.901 66.477 H 0.0 **** 0.0
34148 H 8.031 66.453 67.307 H 0.0 **** 0.0
34149 H 8.636 64.942 68.027 H 0.0 **** 0.0
34150 H 6.887 65.267 67.981 H 0.0 **** 0.0
34151 C 20.001 18.549 59.261 C 0.0 **** 0.0
34152 H 19.504 19.168 58.514 H 0.0 **** 0.0
34153 H 19.879 17.497 58.999 H 0.0 **** 0.0
34154 H 19.558 18.734 60.239 H 0.0 **** 0.0
34155 H 21.062 18.795 59.289 H 0.0 **** 0.0
34156 C 57.05 3.747 77.813 C 0.0 **** 0.0
34157 H 57.046 4.402 76.942 H 0.0 **** 0.0
34158 H 58.058 3.698 78.226 H 0.0 **** 0.0
34159 H 56.728 2.749 77.518 H 0.0 **** 0.0
34160 H 56.367 4.142 78.566 H 0.0 **** 0.0
34161 C 89.151 57.713 89.64 C 0.0 **** 0.0
34162 H 89.567 58.566 90.176 H 0.0 **** 0.0
34163 H 88.799 56.971 90.357 H 0.0 **** 0.0
34164 H 89.92 57.271 89.007 H 0.0 **** 0.0
34165 H 88.317 58.045 89.021 H 0.0 **** 0.0
34166 C 65.824 35.067 33.219 C 0.0 **** 0.0
34167 H 65.235 35.732 32.587 H 0.0 **** 0.0
34168 H 65.16 34.369 33.73 H 0.0 **** 0.0
34169 H 66.369 35.657 33.956 H 0.0 **** 0.0
34170 H 66.531 34.512 32.603 H 0.0 **** 0.0
34171 C 78.974 0.975 93.938 C 0.0 **** 0.0
34172 H 79.398 1.769 94.553 H 0.0 **** 0.0
34173 H 77.955 1.238 93.657 H 0.0 **** 0.0
34174 H 78.967 0.043 94.504 H 0.0 **** 0.0
34175 H 79.579 0.849 93.04 H 0.0 **** 0.0
34176 C 76.582 68.794 17.599 C 0.0 **** 0.0
34177 H 76.798 69.227 18.576 H 0.0 **** 0.0
34178 H 75.8 68.041 17.701 H 0.0 **** 0.0
34179 H 77.483 68.33 17.2 H 0.0 **** 0.0
34180 H 76.246 69.578 16.921 H 0.0 **** 0.0
34181 C 66.857 30.227 7.88 C 0.0 **** 0.0
34182 H 67.653 30.072 8.609 H 0.0 **** 0.0
34183 H 67.281 30.629 6.96 H 0.0 **** 0.0
34184 H 66.128 30.93 8.283 H 0.0 **** 0.0
34185 H 66.368 29.276 7.67 H 0.0 **** 0.0
34186 C 58.177 97.698 20.718 C 0.0 **** 0.0
34187 H 57.6 97.648 21.642 H 0.0 **** 0.0
34188 H 57.497 97.75 19.868 H 0.0 **** 0.0
34189 H 58.801 96.809 20.632 H 0.0 **** 0.0
34190 H 58.809 98.586 20.733 H 0.0 **** 0.0
34191 C 15.948 73.746 33.361 C 0.0 **** 0.0
34192 H 15.539 73.681 34.37 H 0.0 **** 0.0
34193 H 16.764 73.031 33.254 H 0.0 **** 0.0
34194 H 16.321 74.754 33.184 H 0.0 **** 0.0
34195 H 15.166 73.516 32.637 H 0.0 **** 0.0
34196 C 62.981 85.834 37.856 C 0.0 **** 0.0
34197 H 63.686 85.086 38.218 H 0.0 **** 0.0
34198 H 63.476 86.479 37.13 H 0.0 **** 0.0
34199 H 62.627 86.435 38.694 H 0.0 **** 0.0
34200 H 62.134 85.337 37.383 H 0.0 **** 0.0
34201 C 18.042 44.139 56.994 C 0.0 **** 0.0
34202 H 18.228 44.319 55.935 H 0.0 **** 0.0
34203 H 17.09 44.588 57.277 H 0.0 **** 0.0
34204 H 18.843 44.584 57.584 H 0.0 **** 0.0
34205 H 18.007 43.065 57.179 H 0.0 **** 0.0
34206 C 52.285 40.7 22.762 C 0.0 **** 0.0
34207 H 52.149 40.494 23.824 H 0.0 **** 0.0
34208 H 52.993 41.52 22.64 H 0.0 **** 0.0
34209 H 51.328 40.977 22.32 H 0.0 **** 0.0
34210 H 52.671 39.81 22.266 H 0.0 **** 0.0
34211 C 84.219 67.347 64.82 C 0.0 **** 0.0
34212 H 83.508 68.141 64.593 H 0.0 **** 0.0
34213 H 83.741 66.378 64.668 H 0.0 **** 0.0
34214 H 84.543 67.434 65.857 H 0.0 **** 0.0
34215 H 85.083 67.433 64.16 H 0.0 **** 0.0
34216 C 82.121 34.539 10.38 C 0.0 **** 0.0
34217 H 82.083 33.614 10.956 H 0.0 **** 0.0
34218 H 83.053 34.578 9.816 H 0.0 **** 0.0
34219 H 82.069 35.391 11.058 H 0.0 **** 0.0
34220 H 81.277 34.572 9.69 H 0.0 **** 0.0
34221 C 23.526 12.565 83.402 C 0.0 **** 0.0
34222 H 23.971 12.401 84.383 H 0.0 **** 0.0
34223 H 22.669 11.903 83.277 H 0.0 **** 0.0
34224 H 24.265 12.353 82.629 H 0.0 **** 0.0
34225 H 23.201 13.602 83.319 H 0.0 **** 0.0
34226 C 97.746 9.424 87.517 C 0.0 **** 0.0
34227 H 97.024 9.285 86.712 H 0.0 **** 0.0
34228 H 98.026 8.452 87.925 H 0.0 **** 0.0
34229 H 97.3 10.033 88.303 H 0.0 **** 0.0
34230 H 98.633 9.924 87.128 H 0.0 **** 0.0
34231 C 25.502 76.814 46.707 C 0.0 **** 0.0
34232 H 25.691 76.721 47.776 H 0.0 **** 0.0
34233 H 24.939 77.728 46.516 H 0.0 **** 0.0
34234 H 24.928 75.954 46.364 H 0.0 **** 0.0
34235 H 26.451 76.854 46.173 H 0.0 **** 0.0
34236 C 95.127 35.157 38.85 C 0.0 **** 0.0
34237 H 94.671 34.906 37.893 H 0.0 **** 0.0
34238 H 95.397 34.241 39.375 H 0.0 **** 0.0
34239 H 94.419 35.726 39.452 H 0.0 **** 0.0
34240 H 96.022 35.756 38.68 H 0.0 **** 0.0
34241 C 18.752 91.056 48.13 C 0.0 **** 0.0
34242 H 19.012 91.09 47.072 H 0.0 **** 0.0
34243 H 19.36 90.3 48.628 H 0.0 **** 0.0
34244 H 17.697 90.803 48.237 H 0.0 **** 0.0
34245 H 18.94 92.03 48.582 H 0.0 **** 0.0
34246 C 55.066 59.298 88.147 C 0.0 **** 0.0
34247 H 54.194 59.126 88.777 H 0.0 **** 0.0
34248 H 55.07 60.334 87.807 H 0.0 **** 0.0
34249 H 55.029 58.632 87.284 H 0.0 **** 0.0
34250 H 55.973 59.099 88.719 H 0.0 **** 0.0
34251 C 89.137 5.677 20.06 C 0.0 **** 0.0
34252 H 88.748 5.921 21.048 H 0.0 **** 0.0
34253 H 88.313 5.614 19.35 H 0.0 **** 0.0
34254 H 89.657 4.719 20.101 H 0.0 **** 0.0
34255 H 89.833 6.454 19.742 H 0.0 **** 0.0
34256 C 90.316 38.559 13.414 C 0.0 **** 0.0
34257 H 90.396 38.169 14.429 H 0.0 **** 0.0
34258 H 91.048 39.355 13.272 H 0.0 **** 0.0
34259 H 89.313 38.955 13.255 H 0.0 **** 0.0
34260 H 90.507 37.757 12.701 H 0.0 **** 0.0
34261 C 90.994 22.92 16.082 C 0.0 **** 0.0
34262 H 90.985 22.879 14.993 H 0.0 **** 0.0
34263 H 90.751 23.931 16.409 H 0.0 **** 0.0
34264 H 91.984 22.647 16.447 H 0.0 **** 0.0
34265 H 90.256 22.222 16.478 H 0.0 **** 0.0
34266 C 60.37 56.424 51.69 C 0.0 **** 0.0
34267 H 60.354 56.806 50.669 H 0.0 **** 0.0
34268 H 59.952 57.173 52.364 H 0.0 **** 0.0
34269 H 61.398 56.207 51.98 H 0.0 **** 0.0
34270 H 59.776 55.512 51.746 H 0.0 **** 0.0
34271 C 56.027 2.359 1.634 C 0.0 **** 0.0
34272 H 57.054 2.149 1.933 H 0.0 **** 0.0
34273 H 55.475 2.755 2.487 H 0.0 **** 0.0
34274 H 55.553 1.439 1.29 H 0.0 **** 0.0
34275 H 56.026 3.092 0.828 H 0.0 **** 0.0
34276 C 96.417 95.276 5.795 C 0.0 **** 0.0
34277 H 96.202 95.484 6.843 H 0.0 **** 0.0
34278 H 97.439 95.579 5.567 H 0.0 **** 0.0
34279 H 95.723 95.832 5.164 H 0.0 **** 0.0
34280 H 96.303 94.208 5.606 H 0.0 **** 0.0
34281 C 23.198 28.68 38.282 C 0.0 **** 0.0
34282 H 22.628 28.191 37.492 H 0.0 **** 0.0
34283 H 22.881 28.294 39.251 H 0.0 **** 0.0
34284 H 23.022 29.755 38.244 H 0.0 **** 0.0
34285 H 24.26 28.481 38.141 H 0.0 **** 0.0
34286 C 81.611 87.018 11.42 C 0.0 **** 0.0
34287 H 82.695 87.047 11.531 H 0.0 **** 0.0
34288 H 81.184 86.382 12.195 H 0.0 **** 0.0
34289 H 81.358 86.616 10.439 H 0.0 **** 0.0
34290 H 81.21 88.027 11.514 H 0.0 **** 0.0
34291 C 69.753 34.429 7.707 C 0.0 **** 0.0
34292 H 69.425 34.383 6.668 H 0.0 **** 0.0
34293 H 69.814 35.471 8.022 H 0.0 **** 0.0
34294 H 70.734 33.964 7.798 H 0.0 **** 0.0
34295 H 69.039 33.899 8.337 H 0.0 **** 0.0
34296 C 88.417 56.88 25.618 C 0.0 **** 0.0
34297 H 88.939 57.45 24.849 H 0.0 **** 0.0
34298 H 87.53 56.416 25.185 H 0.0 **** 0.0
34299 H 88.12 57.549 26.426 H 0.0 **** 0.0
34300 H 89.078 56.107 26.009 H 0.0 **** 0.0
34301 C 81.09 30.84 75.672 C 0.0 **** 0.0
34302 H 81.729 30.166 75.101 H 0.0 **** 0.0
34303 H 81.622 31.774 75.857 H 0.0 **** 0.0
34304 H 80.83 30.375 76.622 H 0.0 **** 0.0
34305 H 80.182 31.045 75.106 H 0.0 **** 0.0
34306 C 52.629 68.599 14.752 C 0.0 **** 0.0
34307 H 52.009 68.663 15.647 H 0.0 **** 0.0
34308 H 53.666 68.81 15.013 H 0.0 **** 0.0
34309 H 52.283 69.328 14.019 H 0.0 **** 0.0
34310 H 52.556 67.597 14.331 H 0.0 **** 0.0
34311 C 83.168 78.021 24.644 C 0.0 **** 0.0
34312 H 83.153 77.911 25.729 H 0.0 **** 0.0
34313 H 83.427 77.066 24.186 H 0.0 **** 0.0
34314 H 83.907 78.771 24.365 H 0.0 **** 0.0
34315 H 82.183 78.335 24.298 H 0.0 **** 0.0
34316 C 47.534 68.685 2.885 C 0.0 **** 0.0
34317 H 47.801 68.524 1.84 H 0.0 **** 0.0
34318 H 46.886 67.876 3.223 H 0.0 **** 0.0
34319 H 47.011 69.636 2.983 H 0.0 **** 0.0
34320 H 48.439 68.703 3.491 H 0.0 **** 0.0
34321 C 41.324 37.279 30.708 C 0.0 **** 0.0
34322 H 41.549 37.238 29.643 H 0.0 **** 0.0
34323 H 40.74 36.403 30.99 H 0.0 **** 0.0
34324 H 40.753 38.182 30.924 H 0.0 **** 0.0
34325 H 42.255 37.294 31.276 H 0.0 **** 0.0
34326 C 98.046 11.461 53.067 C 0.0 **** 0.0
34327 H 98.146 11.526 51.983 H 0.0 **** 0.0
34328 H 98.897 10.918 53.478 H 0.0 **** 0.0
34329 H 97.125 10.935 53.315 H 0.0 **** 0.0
34330 H 98.018 12.465 53.489 H 0.0 **** 0.0
34331 C 56.914 32.823 63.084 C 0.0 **** 0.0
34332 H 56.307 32.004 63.47 H 0.0 **** 0.0
34333 H 56.84 32.849 61.997 H 0.0 **** 0.0
34334 H 57.953 32.674 63.376 H 0.0 **** 0.0
34335 H 56.553 33.766 63.495 H 0.0 **** 0.0
34336 C 70.249 45.949 86.709 C 0.0 **** 0.0
34337 H 69.513 46.367 86.023 H 0.0 **** 0.0
34338 H 71.104 45.579 86.143 H 0.0 **** 0.0
34339 H 69.799 45.127 87.267 H 0.0 **** 0.0
34340 H 70.578 46.722 87.404 H 0.0 **** 0.0
34341 C 50.861 58.125 54.329 C 0.0 **** 0.0
34342 H 50.726 58.06 55.408 H 0.0 **** 0.0
34343 H 51.807 58.62 54.11 H 0.0 **** 0.0
34344 H 50.042 58.698 53.894 H 0.0 **** 0.0
34345 H 50.868 57.122 53.903 H 0.0 **** 0.0
34346 C 13.325 2.358 24.845 C 0.0 **** 0.0
34347 H 13.033 3.37 25.124 H 0.0 **** 0.0
34348 H 14.33 2.154 25.216 H 0.0 **** 0.0
34349 H 13.312 2.262 23.76 H 0.0 **** 0.0
34350 H 12.625 1.645 25.282 H 0.0 **** 0.0
34351 C 70.318 73.44 9.97 C 0.0 **** 0.0
34352 H 69.275 73.548 10.267 H 0.0 **** 0.0
34353 H 70.507 72.407 9.678 H 0.0 **** 0.0
34354 H 70.963 73.704 10.809 H 0.0 **** 0.0
34355 H 70.527 74.101 9.129 H 0.0 **** 0.0
34356 C 59.929 55.819 19.5 C 0.0 **** 0.0
34357 H 59.853 54.99 18.796 H 0.0 **** 0.0
34358 H 59.169 56.565 19.266 H 0.0 **** 0.0
34359 H 60.918 56.271 19.424 H 0.0 **** 0.0
34360 H 59.775 55.449 20.514 H 0.0 **** 0.0
34361 C 28.273 69.106 26.539 C 0.0 **** 0.0
34362 H 28.526 68.314 27.244 H 0.0 **** 0.0
34363 H 29.16 69.706 26.334 H 0.0 **** 0.0
34364 H 27.496 69.739 26.967 H 0.0 **** 0.0
34365 H 27.911 68.663 25.611 H 0.0 **** 0.0
34366 C 91.968 41.726 35.418 C 0.0 **** 0.0
34367 H 92.595 41.978 34.562 H 0.0 **** 0.0
34368 H 91.551 40.728 35.281 H 0.0 **** 0.0
34369 H 91.158 42.451 35.5 H 0.0 **** 0.0
34370 H 92.568 41.748 36.327 H 0.0 **** 0.0
34371 C 77.111 2.326 0.802 C 0.0 **** 0.0
34372 H 76.738 1.462 0.252 H 0.0 **** 0.0
34373 H 76.311 2.738 1.418 H 0.0 **** 0.0
34374 H 77.454 3.084 0.098 H 0.0 **** 0.0
34375 H 77.941 2.02 1.439 H 0.0 **** 0.0
34376 C 38.599 4.298 63.25 C 0.0 **** 0.0
34377 H 38.148 3.318 63.408 H 0.0 **** 0.0
34378 H 38.531 4.562 62.194 H 0.0 **** 0.0
34379 H 39.646 4.27 63.552 H 0.0 **** 0.0
34380 H 38.069 5.042 63.845 H 0.0 **** 0.0
34381 C 39.485 32.082 84.379 C 0.0 **** 0.0
34382 H 38.838 31.598 83.647 H 0.0 **** 0.0
34383 H 39.402 31.565 85.335 H 0.0 **** 0.0
34384 H 39.18 33.122 84.5 H 0.0 **** 0.0
34385 H 40.517 32.044 84.033 H 0.0 **** 0.0
34386 C 71.168 38.084 89.497 C 0.0 **** 0.0
34387 H 71.946 37.32 89.522 H 0.0 **** 0.0
34388 H 71.245 38.709 90.387 H 0.0 **** 0.0
34389 H 70.19 37.605 89.472 H 0.0 **** 0.0
34390 H 71.294 38.701 88.608 H 0.0 **** 0.0
34391 C 2.129 87.011 66.457 C 0.0 **** 0.0
34392 H 2.296 86.298 65.65 H 0.0 **** 0.0
34393 H 1.139 86.851 66.884 H 0.0 **** 0.0
34394 H 2.196 88.026 66.065 H 0.0 **** 0.0
34395 H 2.886 86.869 67.229 H 0.0 **** 0.0
34396 C 98.142 72.363 11.342 C 0.0 **** 0.0
34397 H 97.453 72.813 12.056 H 0.0 **** 0.0
34398 H 99.0 73.021 11.201 H 0.0 **** 0.0
34399 H 97.635 72.217 10.389 H 0.0 **** 0.0
34400 H 98.482 71.4 11.724 H 0.0 **** 0.0
34401 C 47.406 43.41 11.428 C 0.0 **** 0.0
34402 H 48.333 43.515 11.992 H 0.0 **** 0.0
34403 H 46.782 44.289 11.59 H 0.0 **** 0.0
34404 H 46.876 42.519 11.764 H 0.0 **** 0.0
34405 H 47.635 43.318 10.366 H 0.0 **** 0.0
34406 C 69.024 18.996 88.74 C 0.0 **** 0.0
34407 H 68.725 18.767 89.763 H 0.0 **** 0.0
34408 H 68.228 18.702 88.055 H 0.0 **** 0.0
34409 H 69.934 18.449 88.497 H 0.0 **** 0.0
34410 H 69.207 20.067 88.647 H 0.0 **** 0.0
34411 C 76.365 96.305 9.831 C 0.0 **** 0.0
34412 H 77.386 95.969 9.646 H 0.0 **** 0.0
34413 H 75.888 95.638 10.548 H 0.0 **** 0.0
34414 H 75.805 96.295 8.896 H 0.0 **** 0.0
34415 H 76.383 97.318 10.232 H 0.0 **** 0.0
34416 C 37.568 31.442 20.964 C 0.0 **** 0.0
34417 H 36.836 32.245 20.877 H 0.0 **** 0.0
34418 H 38.287 31.517 20.147 H 0.0 **** 0.0
34419 H 37.059 30.48 20.913 H 0.0 **** 0.0
34420 H 38.09 31.528 21.917 H 0.0 **** 0.0
34421 C 98.4 29.892 63.528 C 0.0 **** 0.0
34422 H 97.392 29.915 63.943 H 0.0 **** 0.0
34423 H 98.353 30.057 62.452 H 0.0 **** 0.0
34424 H 98.853 28.922 63.729 H 0.0 **** 0.0
34425 H 99.0 30.676 63.991 H 0.0 **** 0.0
34426 C 83.207 46.78 26.986 C 0.0 **** 0.0
34427 H 83.18 47.296 27.946 H 0.0 **** 0.0
34428 H 82.189 46.556 26.666 H 0.0 **** 0.0
34429 H 83.768 45.851 27.088 H 0.0 **** 0.0
34430 H 83.689 47.417 26.245 H 0.0 **** 0.0
34431 C 25.121 87.438 13.048 C 0.0 **** 0.0
34432 H 24.764 86.411 13.132 H 0.0 **** 0.0
34433 H 26.172 87.435 12.76 H 0.0 **** 0.0
34434 H 25.008 87.941 14.008 H 0.0 **** 0.0
34435 H 24.538 87.963 12.291 H 0.0 **** 0.0
34436 C 68.129 1.895 43.135 C 0.0 **** 0.0
34437 H 68.331 1.523 44.139 H 0.0 **** 0.0
34438 H 67.13 2.33 43.102 H 0.0 **** 0.0
34439 H 68.191 1.072 42.424 H 0.0 **** 0.0
34440 H 68.865 2.656 42.875 H 0.0 **** 0.0
34441 C 18.588 60.946 1.56 C 0.0 **** 0.0
34442 H 19.673 60.878 1.482 H 0.0 **** 0.0
34443 H 18.318 61.87 2.071 H 0.0 **** 0.0
34444 H 18.211 60.094 2.126 H 0.0 **** 0.0
34445 H 18.151 60.941 0.562 H 0.0 **** 0.0
34446 C 75.298 76.759 80.659 C 0.0 **** 0.0
34447 H 74.26 77.031 80.469 H 0.0 **** 0.0
34448 H 75.35 76.127 81.546 H 0.0 **** 0.0
34449 H 75.886 77.662 80.82 H 0.0 **** 0.0
34450 H 75.694 76.215 79.802 H 0.0 **** 0.0
34451 C 39.859 45.465 70.643 C 0.0 **** 0.0
34452 H 40.816 44.944 70.601 H 0.0 **** 0.0
34453 H 39.125 44.836 71.148 H 0.0 **** 0.0
34454 H 39.518 45.68 69.631 H 0.0 **** 0.0
34455 H 39.978 46.399 71.193 H 0.0 **** 0.0
34456 C 54.597 34.171 38.832 C 0.0 **** 0.0
34457 H 53.816 34.403 38.109 H 0.0 **** 0.0
34458 H 55.305 33.469 38.39 H 0.0 **** 0.0
34459 H 54.149 33.725 39.72 H 0.0 **** 0.0
34460 H 55.119 35.087 39.11 H 0.0 **** 0.0
34461 C 6.057 38.509 23.878 C 0.0 **** 0.0
34462 H 5.716 39.044 22.992 H 0.0 **** 0.0
34463 H 5.394 37.665 24.071 H 0.0 **** 0.0
34464 H 6.047 39.182 24.736 H 0.0 **** 0.0
34465 H 7.071 38.144 23.714 H 0.0 **** 0.0
34466 C 30.494 73.768 20.241 C 0.0 **** 0.0
34467 H 30.514 73.257 19.278 H 0.0 **** 0.0
34468 H 29.667 74.479 20.258 H 0.0 **** 0.0
34469 H 31.434 74.3 20.39 H 0.0 **** 0.0
34470 H 30.361 73.036 21.038 H 0.0 **** 0.0
34471 C 51.154 59.269 73.167 C 0.0 **** 0.0
34472 H 51.606 58.962 72.223 H 0.0 **** 0.0
34473 H 51.921 59.698 73.813 H 0.0 **** 0.0
34474 H 50.71 58.403 73.656 H 0.0 **** 0.0
34475 H 50.382 60.014 72.974 H 0.0 **** 0.0
34476 C 65.137 19.609 28.6 C 0.0 **** 0.0
34477 H 65.034 18.594 28.985 H 0.0 **** 0.0
34478 H 64.201 20.149 28.748 H 0.0 **** 0.0
34479 H 65.371 19.571 27.536 H 0.0 **** 0.0
34480 H 65.94 20.119 29.131 H 0.0 **** 0.0
34481 C 67.755 77.655 38.275 C 0.0 **** 0.0
34482 H 67.842 77.643 39.362 H 0.0 **** 0.0
34483 H 68.742 77.527 37.831 H 0.0 **** 0.0
34484 H 67.332 78.608 37.955 H 0.0 **** 0.0
34485 H 67.103 76.843 37.954 H 0.0 **** 0.0
34486 C 89.289 7.143 3.472 C 0.0 **** 0.0
34487 H 89.4 7.255 2.394 H 0.0 **** 0.0
34488 H 88.829 8.041 3.885 H 0.0 **** 0.0
34489 H 90.269 6.995 3.925 H 0.0 **** 0.0
34490 H 88.657 6.28 3.685 H 0.0 **** 0.0
34491 C 5.145 80.986 12.363 C 0.0 **** 0.0
34492 H 5.647 80.326 11.655 H 0.0 **** 0.0
34493 H 4.204 81.33 11.934 H 0.0 **** 0.0
34494 H 5.783 81.844 12.574 H 0.0 **** 0.0
34495 H 4.947 80.444 13.288 H 0.0 **** 0.0
34496 C 82.53 10.842 61.15 C 0.0 **** 0.0
34497 H 82.392 11.034 62.214 H 0.0 **** 0.0
34498 H 82.541 11.788 60.609 H 0.0 **** 0.0
34499 H 81.712 10.222 60.784 H 0.0 **** 0.0
34500 H 83.477 10.323 60.995 H 0.0 **** 0.0
34501 C 65.989 29.587 76.086 C 0.0 **** 0.0
34502 H 65.008 29.112 76.113 H 0.0 **** 0.0
34503 H 65.867 30.667 75.99 H 0.0 **** 0.0
34504 H 66.552 29.208 75.233 H 0.0 **** 0.0
34505 H 66.527 29.362 77.007 H 0.0 **** 0.0
34506 C 24.285 36.492 11.024 C 0.0 **** 0.0
34507 H 24.324 35.522 11.52 H 0.0 **** 0.0
34508 H 24.036 36.352 9.972 H 0.0 **** 0.0
34509 H 25.255 36.981 11.107 H 0.0 **** 0.0
34510 H 23.524 37.111 11.499 H 0.0 **** 0.0
34511 C 7.19 3.931 19.452 C 0.0 **** 0.0
34512 H 8.168 3.461 19.55 H 0.0 **** 0.0
34513 H 7.028 4.222 18.414 H 0.0 **** 0.0
34514 H 7.147 4.815 20.088 H 0.0 **** 0.0
34515 H 6.416 3.226 19.757 H 0.0 **** 0.0
34516 C 10.705 88.455 68.331 C 0.0 **** 0.0
34517 H 10.705 88.488 67.242 H 0.0 **** 0.0
34518 H 11.032 87.469 68.664 H 0.0 **** 0.0
34519 H 9.698 88.648 68.7 H 0.0 **** 0.0
34520 H 11.386 89.214 68.718 H 0.0 **** 0.0
34521 C 47.221 92.07 79.27 C 0.0 **** 0.0
34522 H 47.357 92.941 79.911 H 0.0 **** 0.0
34523 H 47.777 91.226 79.68 H 0.0 **** 0.0
34524 H 47.589 92.295 78.269 H 0.0 **** 0.0
34525 H 46.162 91.817 79.22 H 0.0 **** 0.0
34526 C 81.462 42.989 6.186 C 0.0 **** 0.0
34527 H 82.432 42.81 5.721 H 0.0 **** 0.0
34528 H 81.555 42.887 7.268 H 0.0 **** 0.0
34529 H 80.741 42.262 5.813 H 0.0 **** 0.0
34530 H 81.123 43.996 5.943 H 0.0 **** 0.0
34531 C 34.253 64.15 72.303 C 0.0 **** 0.0
34532 H 33.192 64.302 72.106 H 0.0 **** 0.0
34533 H 34.372 63.488 73.161 H 0.0 **** 0.0
34534 H 34.724 65.11 72.516 H 0.0 **** 0.0
34535 H 34.724 63.701 71.428 H 0.0 **** 0.0
34536 C 23.029 1.743 70.649 C 0.0 **** 0.0
34537 H 23.131 2.663 70.073 H 0.0 **** 0.0
34538 H 22.469 1.011 70.068 H 0.0 **** 0.0
34539 H 22.497 1.954 71.577 H 0.0 **** 0.0
34540 H 24.018 1.347 70.879 H 0.0 **** 0.0
34541 C 33.166 31.501 49.175 C 0.0 **** 0.0
34542 H 33.928 32.24 48.928 H 0.0 **** 0.0
34543 H 33.175 31.316 50.25 H 0.0 **** 0.0
34544 H 33.376 30.572 48.645 H 0.0 **** 0.0
34545 H 32.186 31.875 48.878 H 0.0 **** 0.0
34546 C 87.194 34.058 84.366 C 0.0 **** 0.0
34547 H 87.395 33.642 85.353 H 0.0 **** 0.0
34548 H 86.46 34.86 84.453 H 0.0 **** 0.0
34549 H 86.803 33.276 83.715 H 0.0 **** 0.0
34550 H 88.117 34.455 83.944 H 0.0 **** 0.0
34551 C 55.603 87.167 19.007 C 0.0 **** 0.0
34552 H 55.807 87.022 17.946 H 0.0 **** 0.0
34553 H 55.299 86.219 19.451 H 0.0 **** 0.0
34554 H 54.804 87.898 19.126 H 0.0 **** 0.0
34555 H 56.504 87.528 19.503 H 0.0 **** 0.0
34556 C 58.37 15.469 69.24 C 0.0 **** 0.0
34557 H 58.184 15.162 70.269 H 0.0 **** 0.0
34558 H 57.429 15.486 68.691 H 0.0 **** 0.0
34559 H 59.053 14.762 68.768 H 0.0 **** 0.0
34560 H 58.814 16.464 69.232 H 0.0 **** 0.0
34561 C 35.419 35.234 93.712 C 0.0 **** 0.0
34562 H 35.298 35.076 94.784 H 0.0 **** 0.0
34563 H 34.672 34.651 93.173 H 0.0 **** 0.0
34564 H 36.417 34.918 93.409 H 0.0 **** 0.0
34565 H 35.288 36.292 93.485 H 0.0 **** 0.0
34566 C 33.184 34.727 30.479 C 0.0 **** 0.0
34567 H 33.631 34.448 29.525 H 0.0 **** 0.0
34568 H 33.625 34.127 31.275 H 0.0 **** 0.0
34569 H 32.109 34.549 30.443 H 0.0 **** 0.0
34570 H 33.371 35.783 30.674 H 0.0 **** 0.0
34571 C 86.929 75.548 83.228 C 0.0 **** 0.0
34572 H 86.907 75.625 82.141 H 0.0 **** 0.0
34573 H 87.591 76.314 83.633 H 0.0 **** 0.0
34574 H 87.296 74.563 83.515 H 0.0 **** 0.0
34575 H 85.923 75.691 83.623 H 0.0 **** 0.0
34576 C 84.237 48.955 7.598 C 0.0 **** 0.0
34577 H 83.527 49.576 7.051 H 0.0 **** 0.0
34578 H 83.849 47.939 7.672 H 0.0 **** 0.0
34579 H 84.381 49.363 8.598 H 0.0 **** 0.0
34580 H 85.191 48.943 7.07 H 0.0 **** 0.0
34581 C 43.534 71.28 19.481 C 0.0 **** 0.0
34582 H 42.756 70.669 19.024 H 0.0 **** 0.0
34583 H 44.465 70.715 19.517 H 0.0 **** 0.0
34584 H 43.234 71.552 20.493 H 0.0 **** 0.0
34585 H 43.679 72.184 18.89 H 0.0 **** 0.0
34586 C 57.531 23.02 32.206 C 0.0 **** 0.0
34587 H 57.525 23.506 31.23 H 0.0 **** 0.0
34588 H 58.339 22.288 32.241 H 0.0 **** 0.0
34589 H 56.578 22.518 32.367 H 0.0 **** 0.0
34590 H 57.684 23.769 32.983 H 0.0 **** 0.0
34591 C 72.179 45.875 11.279 C 0.0 **** 0.0
34592 H 72.152 44.994 11.92 H 0.0 **** 0.0
34593 H 71.237 46.417 11.366 H 0.0 **** 0.0
34594 H 72.328 45.567 10.244 H 0.0 **** 0.0
34595 H 73.001 46.522 11.587 H 0.0 **** 0.0
34596 C 0.695 97.983 85.957 C 0.0 **** 0.0
34597 H 1.481 98.056 86.709 H 0.0 **** 0.0
34598 H 0.002 97.187 86.232 H 0.0 **** 0.0
34599 H 1.141 97.758 84.988 H 0.0 **** 0.0
34600 H 0.158 98.93 85.899 H 0.0 **** 0.0
34601 C 74.005 86.067 56.546 C 0.0 **** 0.0
34602 H 74.2 86.317 57.589 H 0.0 **** 0.0
34603 H 73.09 85.479 56.479 H 0.0 **** 0.0
34604 H 74.84 85.489 56.15 H 0.0 **** 0.0
34605 H 73.892 86.984 55.968 H 0.0 **** 0.0
34606 C 21.614 23.023 10.129 C 0.0 **** 0.0
34607 H 21.742 23.203 11.197 H 0.0 **** 0.0
34608 H 22.569 22.724 9.695 H 0.0 **** 0.0
34609 H 21.264 23.935 9.646 H 0.0 **** 0.0
34610 H 20.883 22.229 9.98 H 0.0 **** 0.0
34611 C 53.347 12.389 77.685 C 0.0 **** 0.0
34612 H 53.339 12.363 78.775 H 0.0 **** 0.0
34613 H 52.47 12.931 77.329 H 0.0 **** 0.0
34614 H 53.328 11.371 77.297 H 0.0 **** 0.0
34615 H 54.25 12.892 77.341 H 0.0 **** 0.0
34616 C 0.662 36.027 10.187 C 0.0 **** 0.0
34617 H 0.561 36.189 9.114 H 0.0 **** 0.0
34618 H 0.169 35.095 10.462 H 0.0 **** 0.0
34619 H 0.201 36.856 10.724 H 0.0 **** 0.0
34620 H 1.719 35.97 10.447 H 0.0 **** 0.0
34621 C 44.386 89.944 40.462 C 0.0 **** 0.0
34622 H 44.269 89.874 41.543 H 0.0 **** 0.0
34623 H 43.916 90.86 40.103 H 0.0 **** 0.0
34624 H 43.913 89.083 39.989 H 0.0 **** 0.0
34625 H 45.447 89.958 40.212 H 0.0 **** 0.0
34626 C 41.887 51.464 61.948 C 0.0 **** 0.0
34627 H 41.012 51.854 61.427 H 0.0 **** 0.0
34628 H 41.565 50.807 62.756 H 0.0 **** 0.0
34629 H 42.464 52.292 62.36 H 0.0 **** 0.0
34630 H 42.506 50.903 61.247 H 0.0 **** 0.0
34631 C 77.821 54.412 74.215 C 0.0 **** 0.0
34632 H 78.267 53.793 73.437 H 0.0 **** 0.0
34633 H 76.801 54.079 74.404 H 0.0 **** 0.0
34634 H 77.81 55.452 73.889 H 0.0 **** 0.0
34635 H 78.408 54.324 75.129 H 0.0 **** 0.0
34636 C 17.102 84.697 83.4 C 0.0 **** 0.0
34637 H 16.273 84.023 83.617 H 0.0 **** 0.0
34638 H 17.284 84.715 82.325 H 0.0 **** 0.0
34639 H 17.997 84.349 83.915 H 0.0 **** 0.0
34640 H 16.853 85.701 83.743 H 0.0 **** 0.0
34641 C 20.059 30.411 74.469 C 0.0 **** 0.0
34642 H 19.192 30.991 74.786 H 0.0 **** 0.0
34643 H 20.285 29.656 75.222 H 0.0 **** 0.0
34644 H 20.916 31.075 74.351 H 0.0 **** 0.0
34645 H 19.843 29.924 73.518 H 0.0 **** 0.0
34646 C 52.115 23.978 22.566 C 0.0 **** 0.0
34647 H 52.133 23.475 23.533 H 0.0 **** 0.0
34648 H 51.115 23.905 22.138 H 0.0 **** 0.0
34649 H 52.832 23.503 21.896 H 0.0 **** 0.0
34650 H 52.379 25.027 22.697 H 0.0 **** 0.0
34651 C 11.706 95.675 7.793 C 0.0 **** 0.0
34652 H 11.799 95.539 8.87 H 0.0 **** 0.0
34653 H 12.014 94.762 7.283 H 0.0 **** 0.0
34654 H 12.343 96.501 7.475 H 0.0 **** 0.0
34655 H 10.669 95.899 7.544 H 0.0 **** 0.0
34656 C 76.442 35.154 31.326 C 0.0 **** 0.0
34657 H 76.897 34.661 32.185 H 0.0 **** 0.0
34658 H 75.398 35.378 31.547 H 0.0 **** 0.0
34659 H 76.496 34.495 30.459 H 0.0 **** 0.0
34660 H 76.976 36.08 31.113 H 0.0 **** 0.0
34661 C 87.179 97.241 20.736 C 0.0 **** 0.0
34662 H 87.093 97.928 21.578 H 0.0 **** 0.0
34663 H 86.621 97.636 19.887 H 0.0 **** 0.0
34664 H 86.774 96.269 21.018 H 0.0 **** 0.0
34665 H 88.229 97.133 20.462 H 0.0 **** 0.0
34666 C 67.443 47.704 58.725 C 0.0 **** 0.0
34667 H 67.347 47.547 57.651 H 0.0 **** 0.0
34668 H 66.479 48.007 59.135 H 0.0 **** 0.0
34669 H 68.18 48.485 58.914 H 0.0 **** 0.0
34670 H 67.765 46.778 59.201 H 0.0 **** 0.0
34671 C 54.954 32.999 34.413 C 0.0 **** 0.0
34672 H 54.339 33.215 35.287 H 0.0 **** 0.0
34673 H 54.87 31.941 34.163 H 0.0 **** 0.0
34674 H 55.994 33.239 34.633 H 0.0 **** 0.0
34675 H 54.612 33.6 33.571 H 0.0 **** 0.0
34676 C 72.816 41.985 19.984 C 0.0 **** 0.0
34677 H 72.823 42.896 20.582 H 0.0 **** 0.0
34678 H 72.816 42.245 18.925 H 0.0 **** 0.0
34679 H 71.923 41.405 20.216 H 0.0 **** 0.0
34680 H 73.703 41.394 20.213 H 0.0 **** 0.0
34681 C 71.782 58.84 13.938 C 0.0 **** 0.0
34682 H 71.834 58.873 15.027 H 0.0 **** 0.0
34683 H 71.47 57.845 13.62 H 0.0 **** 0.0
34684 H 72.764 59.064 13.521 H 0.0 **** 0.0
34685 H 71.061 59.578 13.587 H 0.0 **** 0.0
34686 C 54.062 31.499 0.776 C 0.0 **** 0.0
34687 H 53.363 31.784 -0.011 H 0.0 **** 0.0
34688 H 54.652 30.644 0.446 H 0.0 **** 0.0
34689 H 53.506 31.231 1.675 H 0.0 **** 0.0
34690 H 54.724 32.337 0.994 H 0.0 **** 0.0
34691 C 40.837 22.901 18.468 C 0.0 **** 0.0
34692 H 39.911 22.762 17.91 H 0.0 **** 0.0
34693 H 40.744 23.773 19.115 H 0.0 **** 0.0
34694 H 41.661 23.053 17.771 H 0.0 **** 0.0
34695 H 41.033 22.017 19.074 H 0.0 **** 0.0
34696 C 39.841 70.73 15.13 C 0.0 **** 0.0
34697 H 40.6 70.224 14.532 H 0.0 **** 0.0
34698 H 39.137 69.995 15.521 H 0.0 **** 0.0
34699 H 39.308 71.448 14.507 H 0.0 **** 0.0
34700 H 40.32 71.251 15.958 H 0.0 **** 0.0
34701 C 40.88 22.986 10.916 C 0.0 **** 0.0
34702 H 41.535 22.227 10.488 H 0.0 **** 0.0
34703 H 41.408 23.94 10.955 H 0.0 **** 0.0
34704 H 40.589 22.689 11.923 H 0.0 **** 0.0
34705 H 39.99 23.089 10.295 H 0.0 **** 0.0
34706 C 88.421 42.71 66.116 C 0.0 **** 0.0
34707 H 88.237 43.02 67.145 H 0.0 **** 0.0
34708 H 88.569 41.63 66.083 H 0.0 **** 0.0
34709 H 89.312 43.211 65.74 H 0.0 **** 0.0
34710 H 87.565 42.978 65.497 H 0.0 **** 0.0
34711 C 5.816 96.713 27.976 C 0.0 **** 0.0
34712 H 5.741 97.052 29.009 H 0.0 **** 0.0
34713 H 6.843 96.829 27.629 H 0.0 **** 0.0
34714 H 5.151 97.307 27.35 H 0.0 **** 0.0
34715 H 5.529 95.663 27.917 H 0.0 **** 0.0
34716 C 67.544 73.885 48.683 C 0.0 **** 0.0
34717 H 67.211 74.703 48.045 H 0.0 **** 0.0
34718 H 68.289 74.254 49.388 H 0.0 **** 0.0
34719 H 67.983 73.1 48.067 H 0.0 **** 0.0
34720 H 66.692 73.482 49.231 H 0.0 **** 0.0
34721 C 18.207 72.551 14.635 C 0.0 **** 0.0
34722 H 17.379 72.093 14.094 H 0.0 **** 0.0
34723 H 19.117 71.976 14.46 H 0.0 **** 0.0
34724 H 17.982 72.56 15.702 H 0.0 **** 0.0
34725 H 18.35 73.573 14.285 H 0.0 **** 0.0
34726 C 61.101 87.826 35.813 C 0.0 **** 0.0
34727 H 61.778 88.536 36.287 H 0.0 **** 0.0
34728 H 60.169 88.329 35.556 H 0.0 **** 0.0
34729 H 60.895 87.006 36.501 H 0.0 **** 0.0
34730 H 61.564 87.433 34.907 H 0.0 **** 0.0
34731 C 15.168 27.893 13.576 C 0.0 **** 0.0
34732 H 15.063 28.8 12.981 H 0.0 **** 0.0
34733 H 15.783 28.102 14.452 H 0.0 **** 0.0
34734 H 15.643 27.117 12.975 H 0.0 **** 0.0
34735 H 14.183 27.552 13.896 H 0.0 **** 0.0
34736 C 48.961 97.719 96.723 C 0.0 **** 0.0
34737 H 48.899 97.695 97.811 H 0.0 **** 0.0
34738 H 48.903 98.751 96.379 H 0.0 **** 0.0
34739 H 48.135 97.147 96.3 H 0.0 **** 0.0
34740 H 49.907 97.281 96.404 H 0.0 **** 0.0
34741 C 26.418 46.608 33.639 C 0.0 **** 0.0
34742 H 25.552 47.269 33.645 H 0.0 **** 0.0
34743 H 26.303 45.851 34.415 H 0.0 **** 0.0
34744 H 27.32 47.19 33.83 H 0.0 **** 0.0
34745 H 26.498 46.123 32.667 H 0.0 **** 0.0
34746 C 28.997 77.057 30.457 C 0.0 **** 0.0
34747 H 28.595 77.556 31.339 H 0.0 **** 0.0
34748 H 29.077 77.774 29.639 H 0.0 **** 0.0
34749 H 28.332 76.244 30.165 H 0.0 **** 0.0
34750 H 29.984 76.655 30.686 H 0.0 **** 0.0
34751 C 95.408 20.266 42.284 C 0.0 **** 0.0
34752 H 96.323 20.657 41.839 H 0.0 **** 0.0
34753 H 94.605 20.296 41.548 H 0.0 **** 0.0
34754 H 95.135 20.874 43.146 H 0.0 **** 0.0
34755 H 95.571 19.236 42.603 H 0.0 **** 0.0
34756 C 44.182 22.934 11.576 C 0.0 **** 0.0
34757 H 43.909 22.957 10.521 H 0.0 **** 0.0
34758 H 44.484 21.924 11.851 H 0.0 **** 0.0
34759 H 43.325 23.235 12.179 H 0.0 **** 0.0
34760 H 45.009 23.622 11.751 H 0.0 **** 0.0
34761 C 15.727 16.194 57.289 C 0.0 **** 0.0
34762 H 15.666 16.149 56.201 H 0.0 **** 0.0
34763 H 15.223 17.094 57.643 H 0.0 **** 0.0
34764 H 16.773 16.219 57.593 H 0.0 **** 0.0
34765 H 15.245 15.315 57.716 H 0.0 **** 0.0
34766 C 32.385 42.075 41.421 C 0.0 **** 0.0
34767 H 32.526 41.869 40.36 H 0.0 **** 0.0
34768 H 33.069 42.866 41.731 H 0.0 **** 0.0
34769 H 32.589 41.172 41.997 H 0.0 **** 0.0
34770 H 31.358 42.393 41.596 H 0.0 **** 0.0
34771 C 9.151 62.112 74.651 C 0.0 **** 0.0
34772 H 9.238 61.034 74.786 H 0.0 **** 0.0
34773 H 9.096 62.597 75.626 H 0.0 **** 0.0
34774 H 8.248 62.334 74.082 H 0.0 **** 0.0
34775 H 10.022 62.481 74.109 H 0.0 **** 0.0
34776 C 33.741 94.056 61.14 C 0.0 **** 0.0
34777 H 33.357 93.829 62.135 H 0.0 **** 0.0
34778 H 34.384 93.242 60.804 H 0.0 **** 0.0
34779 H 34.314 94.982 61.174 H 0.0 **** 0.0
34780 H 32.907 94.17 60.447 H 0.0 **** 0.0
34781 C 26.767 57.178 43.265 C 0.0 **** 0.0
34782 H 27.105 56.799 42.3 H 0.0 **** 0.0
34783 H 26.033 56.491 43.688 H 0.0 **** 0.0
34784 H 26.311 58.159 43.13 H 0.0 **** 0.0
34785 H 27.618 57.263 43.94 H 0.0 **** 0.0
34786 C 7.586 19.734 19.821 C 0.0 **** 0.0
34787 H 6.989 20.438 19.241 H 0.0 **** 0.0
34788 H 6.939 18.954 20.222 H 0.0 **** 0.0
34789 H 8.072 20.261 20.642 H 0.0 **** 0.0
34790 H 8.343 19.285 19.178 H 0.0 **** 0.0
34791 C 94.289 44.126 8.554 C 0.0 **** 0.0
34792 H 94.906 44.614 7.8 H 0.0 **** 0.0
34793 H 93.6 43.435 8.067 H 0.0 **** 0.0
34794 H 93.721 44.879 9.101 H 0.0 **** 0.0
34795 H 94.927 43.577 9.246 H 0.0 **** 0.0
34796 C 94.893 79.502 38.132 C 0.0 **** 0.0
34797 H 94.881 79.591 39.218 H 0.0 **** 0.0
34798 H 94.181 78.736 37.823 H 0.0 **** 0.0
34799 H 95.894 79.223 37.802 H 0.0 **** 0.0
34800 H 94.616 80.457 37.686 H 0.0 **** 0.0
34801 C 74.177 70.343 50.379 C 0.0 **** 0.0
34802 H 74.206 70.676 51.417 H 0.0 **** 0.0
34803 H 73.275 70.726 49.901 H 0.0 **** 0.0
34804 H 74.171 69.254 50.347 H 0.0 **** 0.0
34805 H 75.054 70.718 49.852 H 0.0 **** 0.0
34806 C 21.319 39.471 87.169 C 0.0 **** 0.0
34807 H 20.338 39.186 87.547 H 0.0 **** 0.0
34808 H 21.222 40.352 86.534 H 0.0 **** 0.0
34809 H 21.737 38.649 86.588 H 0.0 **** 0.0
34810 H 21.98 39.697 88.006 H 0.0 **** 0.0
34811 C 83.642 8.376 21.638 C 0.0 **** 0.0
34812 H 84.552 8.094 22.168 H 0.0 **** 0.0
34813 H 83.553 9.463 21.623 H 0.0 **** 0.0
34814 H 82.778 7.947 22.147 H 0.0 **** 0.0
34815 H 83.685 8.0 20.616 H 0.0 **** 0.0
34816 C 94.961 20.442 1.911 C 0.0 **** 0.0
34817 H 94.595 19.459 2.205 H 0.0 **** 0.0
34818 H 95.936 20.617 2.365 H 0.0 **** 0.0
34819 H 94.26 21.206 2.248 H 0.0 **** 0.0
34820 H 95.052 20.486 0.825 H 0.0 **** 0.0
34821 C 28.614 14.39 26.292 C 0.0 **** 0.0
34822 H 29.051 14.943 27.123 H 0.0 **** 0.0
34823 H 27.936 13.629 26.679 H 0.0 **** 0.0
34824 H 29.406 13.913 25.716 H 0.0 **** 0.0
34825 H 28.061 15.076 25.65 H 0.0 **** 0.0
34826 C 44.93 0.944 56.369 C 0.0 **** 0.0
34827 H 44.343 0.864 55.453 H 0.0 **** 0.0
34828 H 45.442 -0.0 56.555 H 0.0 **** 0.0
34829 H 44.268 1.17 57.205 H 0.0 **** 0.0
34830 H 45.664 1.742 56.261 H 0.0 **** 0.0
34831 C 11.361 11.048 53.66 C 0.0 **** 0.0
34832 H 12.132 11.589 53.111 H 0.0 **** 0.0
34833 H 10.75 10.477 52.96 H 0.0 **** 0.0
34834 H 10.732 11.757 54.197 H 0.0 **** 0.0
34835 H 11.831 10.368 54.371 H 0.0 **** 0.0
34836 C 85.224 8.307 29.159 C 0.0 **** 0.0
34837 H 85.081 8.792 30.124 H 0.0 **** 0.0
34838 H 84.527 8.728 28.434 H 0.0 **** 0.0
34839 H 85.041 7.237 29.26 H 0.0 **** 0.0
34840 H 86.246 8.47 28.817 H 0.0 **** 0.0
34841 C 20.022 5.256 26.046 C 0.0 **** 0.0
34842 H 19.801 5.471 27.091 H 0.0 **** 0.0
34843 H 19.553 6.011 25.413 H 0.0 **** 0.0
34844 H 19.631 4.272 25.787 H 0.0 **** 0.0
34845 H 21.101 5.272 25.892 H 0.0 **** 0.0
34846 C 3.516 25.65 32.345 C 0.0 **** 0.0
34847 H 3.862 25.65 31.312 H 0.0 **** 0.0
34848 H 3.725 24.68 32.798 H 0.0 **** 0.0
34849 H 2.442 25.838 32.368 H 0.0 **** 0.0
34850 H 4.034 26.43 32.902 H 0.0 **** 0.0
34851 C 61.636 92.156 38.297 C 0.0 **** 0.0
34852 H 62.282 91.5 38.88 H 0.0 **** 0.0
34853 H 61.541 93.117 38.804 H 0.0 **** 0.0
34854 H 60.652 91.7 38.195 H 0.0 **** 0.0
34855 H 62.07 92.308 37.308 H 0.0 **** 0.0
34856 C 7.262 3.887 44.577 C 0.0 **** 0.0
34857 H 6.393 3.93 43.921 H 0.0 **** 0.0
34858 H 7.972 4.663 44.29 H 0.0 **** 0.0
34859 H 7.736 2.91 44.487 H 0.0 **** 0.0
34860 H 6.948 4.045 45.608 H 0.0 **** 0.0
34861 C 53.723 65.59 2.481 C 0.0 **** 0.0
34862 H 52.983 65.111 1.841 H 0.0 **** 0.0
34863 H 53.771 65.065 3.436 H 0.0 **** 0.0
34864 H 53.439 66.628 2.651 H 0.0 **** 0.0
34865 H 54.699 65.555 1.997 H 0.0 **** 0.0
34866 C 58.338 52.18 91.7 C 0.0 **** 0.0
34867 H 58.769 51.953 90.725 H 0.0 **** 0.0
34868 H 57.285 52.436 91.582 H 0.0 **** 0.0
34869 H 58.869 53.022 92.145 H 0.0 **** 0.0
34870 H 58.43 51.309 92.349 H 0.0 **** 0.0
34871 C 5.135 50.305 85.419 C 0.0 **** 0.0
34872 H 5.38 51.038 84.651 H 0.0 **** 0.0
34873 H 4.387 50.722 86.093 H 0.0 **** 0.0
34874 H 6.034 50.055 85.983 H 0.0 **** 0.0
34875 H 4.74 49.404 84.949 H 0.0 **** 0.0
34876 C 16.114 8.315 85.882 C 0.0 **** 0.0
34877 H 15.851 7.3 85.583 H 0.0 **** 0.0
34878 H 16.849 8.277 86.687 H 0.0 **** 0.0
34879 H 15.222 8.835 86.228 H 0.0 **** 0.0
34880 H 16.537 8.846 85.029 H 0.0 **** 0.0
34881 C 15.876 52.901 25.534 C 0.0 **** 0.0
34882 H 15.987 53.264 24.513 H 0.0 **** 0.0
34883 H 14.868 52.511 25.674 H 0.0 **** 0.0
34884 H 16.049 53.721 26.232 H 0.0 **** 0.0
34885 H 16.602 52.108 25.718 H 0.0 **** 0.0
34886 C 35.968 33.016 42.771 C 0.0 **** 0.0
34887 H 35.128 32.484 43.217 H 0.0 **** 0.0
34888 H 35.889 32.973 41.684 H 0.0 **** 0.0
34889 H 36.902 32.55 43.086 H 0.0 **** 0.0
34890 H 35.954 34.056 43.096 H 0.0 **** 0.0
34891 C 58.298 76.817 96.737 C 0.0 **** 0.0
34892 H 59.251 77.232 96.411 H 0.0 **** 0.0
34893 H 57.561 76.933 95.942 H 0.0 **** 0.0
34894 H 57.958 77.344 97.628 H 0.0 **** 0.0
34895 H 58.422 75.759 96.966 H 0.0 **** 0.0
34896 C 17.371 43.257 18.574 C 0.0 **** 0.0
34897 H 17.648 43.182 17.523 H 0.0 **** 0.0
34898 H 18.22 42.973 19.196 H 0.0 **** 0.0
34899 H 16.533 42.59 18.777 H 0.0 **** 0.0
34900 H 17.081 44.283 18.801 H 0.0 **** 0.0
34901 C 12.311 22.842 17.507 C 0.0 **** 0.0
34902 H 12.229 22.749 16.424 H 0.0 **** 0.0
34903 H 12.586 21.878 17.935 H 0.0 **** 0.0
34904 H 11.353 23.162 17.917 H 0.0 **** 0.0
34905 H 13.075 23.58 17.75 H 0.0 **** 0.0
34906 C 12.102 88.217 75.86 C 0.0 **** 0.0
34907 H 11.391 88.311 75.039 H 0.0 **** 0.0
34908 H 12.387 87.171 75.975 H 0.0 **** 0.0
34909 H 11.642 88.572 76.782 H 0.0 **** 0.0
34910 H 12.988 88.814 75.642 H 0.0 **** 0.0
34911 C 50.085 16.933 57.566 C 0.0 **** 0.0
34912 H 49.641 16.016 57.954 H 0.0 **** 0.0
34913 H 49.325 17.512 57.043 H 0.0 **** 0.0
34914 H 50.89 16.682 56.875 H 0.0 **** 0.0
34915 H 50.486 17.519 58.393 H 0.0 **** 0.0
34916 C 83.727 13.578 24.439 C 0.0 **** 0.0
34917 H 84.077 13.527 23.408 H 0.0 **** 0.0
34918 H 82.695 13.93 24.455 H 0.0 **** 0.0
34919 H 84.355 14.268 25.003 H 0.0 **** 0.0
34920 H 83.78 12.587 24.89 H 0.0 **** 0.0
34921 C 31.009 95.999 57.117 C 0.0 **** 0.0
34922 H 31.264 96.933 57.617 H 0.0 **** 0.0
34923 H 30.584 95.303 57.841 H 0.0 **** 0.0
34924 H 31.907 95.564 56.678 H 0.0 **** 0.0
34925 H 30.279 96.195 56.331 H 0.0 **** 0.0
34926 C 42.505 74.751 5.821 C 0.0 **** 0.0
34927 H 42.612 75.134 4.806 H 0.0 **** 0.0
34928 H 43.056 73.814 5.914 H 0.0 **** 0.0
34929 H 41.451 74.576 6.034 H 0.0 **** 0.0
34930 H 42.903 75.479 6.527 H 0.0 **** 0.0
34931 C 93.665 35.496 42.565 C 0.0 **** 0.0
34932 H 93.918 36.285 43.273 H 0.0 **** 0.0
34933 H 94.58 35.036 42.191 H 0.0 **** 0.0
34934 H 93.105 35.921 41.732 H 0.0 **** 0.0
34935 H 93.056 34.742 43.065 H 0.0 **** 0.0
34936 C 53.573 29.419 58.802 C 0.0 **** 0.0
34937 H 53.637 30.068 57.929 H 0.0 **** 0.0
34938 H 53.437 30.027 59.697 H 0.0 **** 0.0
34939 H 54.492 28.839 58.892 H 0.0 **** 0.0
34940 H 52.726 28.743 58.69 H 0.0 **** 0.0
34941 C 21.029 93.319 38.587 C 0.0 **** 0.0
34942 H 20.475 94.172 38.195 H 0.0 **** 0.0
34943 H 20.392 92.434 38.57 H 0.0 **** 0.0
34944 H 21.337 93.526 39.612 H 0.0 **** 0.0
34945 H 21.91 93.145 37.971 H 0.0 **** 0.0
34946 C 80.923 21.135 49.101 C 0.0 **** 0.0
34947 H 81.935 20.915 48.762 H 0.0 **** 0.0
34948 H 80.317 21.456 48.253 H 0.0 **** 0.0
34949 H 80.954 21.928 49.847 H 0.0 **** 0.0
34950 H 80.485 20.239 49.541 H 0.0 **** 0.0
34951 C 33.663 2.539 22.27 C 0.0 **** 0.0
34952 H 32.595 2.34 22.354 H 0.0 **** 0.0
34953 H 33.849 3.16 21.394 H 0.0 **** 0.0
34954 H 34.201 1.596 22.168 H 0.0 **** 0.0
34955 H 34.007 3.059 23.164 H 0.0 **** 0.0
34956 C 68.886 15.386 97.188 C 0.0 **** 0.0
34957 H 69.292 15.476 96.181 H 0.0 **** 0.0
34958 H 69.667 15.036 97.864 H 0.0 **** 0.0
34959 H 68.062 14.673 97.185 H 0.0 **** 0.0
34960 H 68.524 16.358 97.523 H 0.0 **** 0.0
34961 C 37.948 31.86 79.556 C 0.0 **** 0.0
34962 H 38.92 31.368 79.515 H 0.0 **** 0.0
34963 H 37.756 32.199 80.575 H 0.0 **** 0.0
34964 H 37.172 31.156 79.254 H 0.0 **** 0.0
34965 H 37.945 32.716 78.882 H 0.0 **** 0.0
34966 C 2.878 67.208 57.364 C 0.0 **** 0.0
34967 H 2.829 67.236 56.275 H 0.0 **** 0.0
34968 H 3.382 68.104 57.728 H 0.0 **** 0.0
34969 H 3.434 66.325 57.68 H 0.0 **** 0.0
34970 H 1.868 67.167 57.772 H 0.0 **** 0.0
34971 C 5.263 78.406 85.154 C 0.0 **** 0.0
34972 H 5.731 77.619 85.746 H 0.0 **** 0.0
34973 H 4.964 78.003 84.186 H 0.0 **** 0.0
34974 H 5.973 79.219 85.005 H 0.0 **** 0.0
34975 H 4.385 78.782 85.679 H 0.0 **** 0.0
34976 C 94.646 56.477 97.713 C 0.0 **** 0.0
34977 H 94.895 55.589 97.133 H 0.0 **** 0.0
34978 H 93.838 57.018 97.22 H 0.0 **** 0.0
34979 H 95.523 57.121 97.786 H 0.0 **** 0.0
34980 H 94.329 56.181 98.713 H 0.0 **** 0.0
34981 C 87.046 7.808 9.692 C 0.0 **** 0.0
34982 H 86.257 7.205 10.141 H 0.0 **** 0.0
34983 H 87.333 7.375 8.734 H 0.0 **** 0.0
34984 H 87.91 7.828 10.356 H 0.0 **** 0.0
34985 H 86.683 8.824 9.538 H 0.0 **** 0.0
34986 C 4.326 27.142 22.533 C 0.0 **** 0.0
34987 H 3.612 26.502 23.052 H 0.0 **** 0.0
34988 H 4.791 27.821 23.247 H 0.0 **** 0.0
34989 H 3.807 27.718 21.767 H 0.0 **** 0.0
34990 H 5.093 26.524 22.065 H 0.0 **** 0.0
34991 C 30.748 14.136 0.987 C 0.0 **** 0.0
34992 H 31.115 13.571 0.13 H 0.0 **** 0.0
34993 H 30.279 13.454 1.697 H 0.0 **** 0.0
34994 H 30.018 14.872 0.652 H 0.0 **** 0.0
34995 H 31.583 14.646 1.469 H 0.0 **** 0.0
34996 C 8.641 68.694 3.144 C 0.0 **** 0.0
34997 H 8.375 68.852 4.189 H 0.0 **** 0.0
34998 H 7.874 68.087 2.662 H 0.0 **** 0.0
34999 H 9.601 68.182 3.086 H 0.0 **** 0.0
35000 H 8.712 69.657 2.638 H 0.0 **** 0.0
35001 C 57.119 80.339 65.247 C 0.0 **** 0.0
35002 H 56.947 80.465 64.179 H 0.0 **** 0.0
35003 H 57.367 81.303 65.691 H 0.0 **** 0.0
35004 H 57.945 79.644 65.402 H 0.0 **** 0.0
35005 H 56.218 79.943 65.717 H 0.0 **** 0.0
35006 C 57.548 21.18 23.712 C 0.0 **** 0.0
35007 H 57.849 20.991 24.742 H 0.0 **** 0.0
35008 H 57.013 22.128 23.658 H 0.0 **** 0.0
35009 H 56.898 20.375 23.37 H 0.0 **** 0.0
35010 H 58.434 21.226 23.078 H 0.0 **** 0.0
35011 C 76.445 6.378 44.066 C 0.0 **** 0.0
35012 H 76.674 6.044 43.054 H 0.0 **** 0.0
35013 H 75.553 5.863 44.424 H 0.0 **** 0.0
35014 H 76.268 7.453 44.062 H 0.0 **** 0.0
35015 H 77.285 6.15 44.722 H 0.0 **** 0.0
35016 C 85.888 30.365 78.254 C 0.0 **** 0.0
35017 H 84.98 30.801 78.671 H 0.0 **** 0.0
35018 H 86.005 30.691 77.22 H 0.0 **** 0.0
35019 H 85.816 29.278 78.287 H 0.0 **** 0.0
35020 H 86.748 30.69 78.838 H 0.0 **** 0.0
35021 C 86.228 35.027 16.16 C 0.0 **** 0.0
35022 H 85.252 35.113 16.638 H 0.0 **** 0.0
35023 H 86.985 35.488 16.795 H 0.0 **** 0.0
35024 H 86.205 35.532 15.195 H 0.0 **** 0.0
35025 H 86.468 33.974 16.013 H 0.0 **** 0.0
35026 C 27.728 53.837 15.075 C 0.0 **** 0.0
35027 H 27.708 53.909 16.163 H 0.0 **** 0.0
35028 H 27.955 52.812 14.783 H 0.0 **** 0.0
35029 H 28.494 54.506 14.681 H 0.0 **** 0.0
35030 H 26.755 54.123 14.675 H 0.0 **** 0.0
35031 C 96.499 33.427 55.358 C 0.0 **** 0.0
35032 H 96.031 32.784 56.103 H 0.0 **** 0.0
35033 H 95.736 34.032 54.869 H 0.0 **** 0.0
35034 H 97.008 32.812 54.616 H 0.0 **** 0.0
35035 H 97.223 34.081 55.847 H 0.0 **** 0.0
35036 C 45.647 40.827 70.014 C 0.0 **** 0.0
35037 H 44.8 41.451 70.299 H 0.0 **** 0.0
35038 H 45.503 39.819 70.402 H 0.0 **** 0.0
35039 H 46.564 41.249 70.426 H 0.0 **** 0.0
35040 H 45.721 40.791 68.927 H 0.0 **** 0.0
35041 C 42.974 46.197 46.955 C 0.0 **** 0.0
35042 H 44.034 45.969 47.062 H 0.0 **** 0.0
35043 H 42.858 47.177 46.492 H 0.0 **** 0.0
35044 H 42.503 46.202 47.938 H 0.0 **** 0.0
35045 H 42.501 45.44 46.329 H 0.0 **** 0.0
35046 C 13.293 40.969 46.688 C 0.0 **** 0.0
35047 H 14.315 40.594 46.75 H 0.0 **** 0.0
35048 H 13.222 41.697 45.88 H 0.0 **** 0.0
35049 H 13.024 41.444 47.632 H 0.0 **** 0.0
35050 H 12.613 40.14 46.492 H 0.0 **** 0.0
35051 C 13.63 9.85 49.216 C 0.0 **** 0.0
35052 H 12.718 9.952 48.627 H 0.0 **** 0.0
35053 H 13.732 10.709 49.879 H 0.0 **** 0.0
35054 H 14.49 9.802 48.548 H 0.0 **** 0.0
35055 H 13.579 8.937 49.809 H 0.0 **** 0.0
35056 C 65.009 52.681 24.445 C 0.0 **** 0.0
35057 H 64.285 53.47 24.647 H 0.0 **** 0.0
35058 H 65.957 52.926 24.924 H 0.0 **** 0.0
35059 H 65.157 52.59 23.369 H 0.0 **** 0.0
35060 H 64.635 51.736 24.841 H 0.0 **** 0.0
35061 C 74.192 54.711 31.286 C 0.0 **** 0.0
35062 H 74.625 54.858 32.276 H 0.0 **** 0.0
35063 H 74.019 53.648 31.119 H 0.0 **** 0.0
35064 H 74.879 55.091 30.53 H 0.0 **** 0.0
35065 H 73.246 55.248 31.22 H 0.0 **** 0.0
35066 C 10.276 72.899 66.942 C 0.0 **** 0.0
35067 H 10.499 73.12 67.986 H 0.0 **** 0.0
35068 H 10.888 72.06 66.61 H 0.0 **** 0.0
35069 H 10.498 73.774 66.331 H 0.0 **** 0.0
35070 H 9.222 72.644 66.841 H 0.0 **** 0.0
35071 C 43.96 58.651 96.827 C 0.0 **** 0.0
35072 H 44.077 58.831 95.758 H 0.0 **** 0.0
35073 H 43.911 59.605 97.352 H 0.0 **** 0.0
35074 H 44.812 58.078 97.193 H 0.0 **** 0.0
35075 H 43.042 58.091 97.003 H 0.0 **** 0.0
35076 C 55.97 52.908 93.786 C 0.0 **** 0.0
35077 H 55.502 52.483 92.898 H 0.0 **** 0.0
35078 H 56.747 52.232 94.145 H 0.0 **** 0.0
35079 H 55.218 53.044 94.563 H 0.0 **** 0.0
35080 H 56.414 53.872 93.536 H 0.0 **** 0.0
35081 C 24.85 11.751 57.839 C 0.0 **** 0.0
35082 H 24.552 11.882 56.799 H 0.0 **** 0.0
35083 H 25.597 12.501 58.1 H 0.0 **** 0.0
35084 H 25.273 10.755 57.973 H 0.0 **** 0.0
35085 H 23.979 11.866 58.484 H 0.0 **** 0.0
35086 C 58.201 36.884 74.852 C 0.0 **** 0.0
35087 H 58.457 37.449 73.955 H 0.0 **** 0.0
35088 H 57.123 36.726 74.886 H 0.0 **** 0.0
35089 H 58.515 37.442 75.734 H 0.0 **** 0.0
35090 H 58.709 35.92 74.831 H 0.0 **** 0.0
35091 C 5.259 44.623 64.616 C 0.0 **** 0.0
35092 H 4.178 44.592 64.485 H 0.0 **** 0.0
35093 H 5.618 43.637 64.911 H 0.0 **** 0.0
35094 H 5.509 45.348 65.391 H 0.0 **** 0.0
35095 H 5.731 44.916 63.678 H 0.0 **** 0.0
35096 C 71.904 70.789 76.287 C 0.0 **** 0.0
35097 H 72.426 70.537 75.363 H 0.0 **** 0.0
35098 H 72.473 71.544 76.83 H 0.0 **** 0.0
35099 H 71.806 69.895 76.903 H 0.0 **** 0.0
35100 H 70.914 71.178 76.05 H 0.0 **** 0.0
35101 C 87.361 42.848 6.18 C 0.0 **** 0.0
35102 H 88.297 42.825 6.737 H 0.0 **** 0.0
35103 H 87.33 42.008 5.486 H 0.0 **** 0.0
35104 H 87.292 43.783 5.623 H 0.0 **** 0.0
35105 H 86.524 42.777 6.875 H 0.0 **** 0.0
35106 C 23.232 8.56 24.518 C 0.0 **** 0.0
35107 H 23.289 8.002 25.453 H 0.0 **** 0.0
35108 H 23.797 8.035 23.748 H 0.0 **** 0.0
35109 H 23.654 9.555 24.663 H 0.0 **** 0.0
35110 H 22.191 8.648 24.21 H 0.0 **** 0.0
35111 C 50.274 52.9 43.963 C 0.0 **** 0.0
35112 H 50.571 53.403 43.043 H 0.0 **** 0.0
35113 H 50.409 53.576 44.807 H 0.0 **** 0.0
35114 H 50.891 52.012 44.106 H 0.0 **** 0.0
35115 H 49.227 52.607 43.895 H 0.0 **** 0.0
35116 C 47.751 18.72 86.898 C 0.0 **** 0.0
35117 H 47.64 18.77 87.981 H 0.0 **** 0.0
35118 H 46.792 18.462 86.447 H 0.0 **** 0.0
35119 H 48.489 17.96 86.643 H 0.0 **** 0.0
35120 H 48.081 19.688 86.522 H 0.0 **** 0.0
35121 C 13.183 55.252 7.323 C 0.0 **** 0.0
35122 H 13.231 54.251 7.752 H 0.0 **** 0.0
35123 H 12.159 55.466 7.015 H 0.0 **** 0.0
35124 H 13.842 55.308 6.457 H 0.0 **** 0.0
35125 H 13.499 55.982 8.068 H 0.0 **** 0.0
35126 C 42.258 38.493 16.152 C 0.0 **** 0.0
35127 H 42.375 37.724 15.389 H 0.0 **** 0.0
35128 H 41.231 38.491 16.516 H 0.0 **** 0.0
35129 H 42.49 39.468 15.723 H 0.0 **** 0.0
35130 H 42.938 38.289 16.979 H 0.0 **** 0.0
35131 C 64.388 50.719 83.524 C 0.0 **** 0.0
35132 H 64.477 50.689 84.609 H 0.0 **** 0.0
35133 H 64.865 49.837 83.095 H 0.0 **** 0.0
35134 H 64.874 51.617 83.144 H 0.0 **** 0.0
35135 H 63.333 50.732 83.247 H 0.0 **** 0.0
35136 C 28.711 26.05 88.734 C 0.0 **** 0.0
35137 H 29.394 26.648 89.338 H 0.0 **** 0.0
35138 H 28.897 26.243 87.677 H 0.0 **** 0.0
35139 H 27.683 26.316 88.977 H 0.0 **** 0.0
35140 H 28.873 24.992 88.945 H 0.0 **** 0.0
35141 C 94.778 71.24 44.094 C 0.0 **** 0.0
35142 H 93.731 70.965 44.216 H 0.0 **** 0.0
35143 H 95.028 71.255 43.033 H 0.0 **** 0.0
35144 H 95.408 70.512 44.606 H 0.0 **** 0.0
35145 H 94.946 72.229 44.52 H 0.0 **** 0.0
35146 C 37.498 17.662 81.651 C 0.0 **** 0.0
35147 H 37.273 18.199 82.572 H 0.0 **** 0.0
35148 H 36.712 17.852 80.919 H 0.0 **** 0.0
35149 H 37.552 16.593 81.857 H 0.0 **** 0.0
35150 H 38.454 18.005 81.255 H 0.0 **** 0.0
35151 C 24.408 51.598 1.226 C 0.0 **** 0.0
35152 H 23.878 51.664 2.176 H 0.0 **** 0.0
35153 H 25.127 50.779 1.268 H 0.0 **** 0.0
35154 H 24.934 52.534 1.038 H 0.0 **** 0.0
35155 H 23.694 51.414 0.424 H 0.0 **** 0.0
35156 C 33.242 54.992 29.618 C 0.0 **** 0.0
35157 H 32.557 54.686 30.408 H 0.0 **** 0.0
35158 H 33.875 55.802 29.982 H 0.0 **** 0.0
35159 H 32.672 55.336 28.755 H 0.0 **** 0.0
35160 H 33.865 54.146 29.329 H 0.0 **** 0.0
35161 C 1.483 72.134 94.879 C 0.0 **** 0.0
35162 H 1.544 71.571 95.81 H 0.0 **** 0.0
35163 H 2.431 72.057 94.345 H 0.0 **** 0.0
35164 H 1.274 73.181 95.101 H 0.0 **** 0.0
35165 H 0.683 71.727 94.26 H 0.0 **** 0.0
35166 C 82.707 25.768 34.364 C 0.0 **** 0.0
35167 H 83.286 25.114 33.712 H 0.0 **** 0.0
35168 H 82.628 25.317 35.353 H 0.0 **** 0.0
35169 H 81.71 25.907 33.947 H 0.0 **** 0.0
35170 H 83.205 26.734 34.444 H 0.0 **** 0.0
35171 C 13.529 13.259 40.644 C 0.0 **** 0.0
35172 H 13.084 12.957 41.592 H 0.0 **** 0.0
35173 H 12.866 13.964 40.141 H 0.0 **** 0.0
35174 H 13.671 12.382 40.014 H 0.0 **** 0.0
35175 H 14.492 13.734 40.829 H 0.0 **** 0.0
35176 C 8.048 23.614 35.003 C 0.0 **** 0.0
35177 H 7.92 22.728 35.625 H 0.0 **** 0.0
35178 H 9.101 23.897 34.984 H 0.0 **** 0.0
35179 H 7.458 24.434 35.413 H 0.0 **** 0.0
35180 H 7.711 23.397 33.989 H 0.0 **** 0.0
35181 C 22.186 12.597 80.582 C 0.0 **** 0.0
35182 H 21.348 12.442 81.262 H 0.0 **** 0.0
35183 H 22.933 13.227 81.065 H 0.0 **** 0.0
35184 H 21.831 13.084 79.674 H 0.0 **** 0.0
35185 H 22.63 11.634 80.328 H 0.0 **** 0.0
35186 C 56.541 56.867 53.373 C 0.0 **** 0.0
35187 H 55.758 57.5 52.953 H 0.0 **** 0.0
35188 H 56.541 56.961 54.459 H 0.0 **** 0.0
35189 H 57.509 57.178 52.98 H 0.0 **** 0.0
35190 H 56.354 55.829 53.097 H 0.0 **** 0.0
35191 C 73.898 8.977 25.956 C 0.0 **** 0.0
35192 H 74.182 8.732 24.933 H 0.0 **** 0.0
35193 H 73.668 8.06 26.499 H 0.0 **** 0.0
35194 H 73.02 9.623 25.944 H 0.0 **** 0.0
35195 H 74.722 9.493 26.448 H 0.0 **** 0.0
35196 C 64.401 11.996 7.555 C 0.0 **** 0.0
35197 H 63.4 12.036 7.127 H 0.0 **** 0.0
35198 H 65.104 12.487 6.881 H 0.0 **** 0.0
35199 H 64.696 10.955 7.692 H 0.0 **** 0.0
35200 H 64.405 12.504 8.519 H 0.0 **** 0.0
35201 C 75.86 80.499 73.731 C 0.0 **** 0.0
35202 H 76.352 80.945 72.867 H 0.0 **** 0.0
35203 H 75.093 79.803 73.393 H 0.0 **** 0.0
35204 H 75.4 81.284 74.332 H 0.0 **** 0.0
35205 H 76.596 79.965 74.332 H 0.0 **** 0.0
35206 C 5.207 32.569 29.188 C 0.0 **** 0.0
35207 H 6.196 32.233 29.499 H 0.0 **** 0.0
35208 H 4.458 31.851 29.523 H 0.0 **** 0.0
35209 H 5.176 32.647 28.101 H 0.0 **** 0.0
35210 H 5.0 33.544 29.628 H 0.0 **** 0.0
35211 C 25.886 36.0 89.293 C 0.0 **** 0.0
35212 H 25.554 34.967 89.191 H 0.0 **** 0.0
35213 H 25.79 36.311 90.333 H 0.0 **** 0.0
35214 H 25.271 36.643 88.663 H 0.0 **** 0.0
35215 H 26.929 36.078 88.984 H 0.0 **** 0.0
35216 C 57.355 38.855 32.777 C 0.0 **** 0.0
35217 H 57.032 37.815 32.832 H 0.0 **** 0.0
35218 H 56.601 39.443 32.254 H 0.0 **** 0.0
35219 H 58.3 38.913 32.238 H 0.0 **** 0.0
35220 H 57.487 39.247 33.786 H 0.0 **** 0.0
35221 C 21.47 63.818 14.896 C 0.0 **** 0.0
35222 H 21.583 63.984 13.825 H 0.0 **** 0.0
35223 H 20.424 63.608 15.122 H 0.0 **** 0.0
35224 H 21.788 64.708 15.438 H 0.0 **** 0.0
35225 H 22.085 62.97 15.198 H 0.0 **** 0.0
35226 C 0.822 20.243 86.499 C 0.0 **** 0.0
35227 H 0.425 20.885 87.286 H 0.0 **** 0.0
35228 H 1.519 19.526 86.933 H 0.0 **** 0.0
35229 H 1.34 20.853 85.76 H 0.0 **** 0.0
35230 H 0.002 19.709 86.019 H 0.0 **** 0.0
35231 C 18.976 37.11 75.635 C 0.0 **** 0.0
35232 H 18.975 37.103 76.725 H 0.0 **** 0.0
35233 H 18.449 37.995 75.277 H 0.0 **** 0.0
35234 H 18.476 36.214 75.266 H 0.0 **** 0.0
35235 H 20.004 37.128 75.273 H 0.0 **** 0.0
35236 C 93.149 8.906 38.53 C 0.0 **** 0.0
35237 H 92.365 8.297 38.982 H 0.0 **** 0.0
35238 H 92.699 9.764 38.029 H 0.0 **** 0.0
35239 H 93.7 8.309 37.805 H 0.0 **** 0.0
35240 H 93.83 9.255 39.307 H 0.0 **** 0.0
35241 C 54.763 38.36 74.948 C 0.0 **** 0.0
35242 H 54.944 38.534 73.887 H 0.0 **** 0.0
35243 H 54.098 39.132 75.335 H 0.0 **** 0.0
35244 H 55.71 38.391 75.487 H 0.0 **** 0.0
35245 H 54.301 37.381 75.081 H 0.0 **** 0.0
35246 C 44.025 32.574 39.152 C 0.0 **** 0.0
35247 H 43.892 32.513 38.072 H 0.0 **** 0.0
35248 H 43.64 33.528 39.512 H 0.0 **** 0.0
35249 H 45.085 32.495 39.392 H 0.0 **** 0.0
35250 H 43.483 31.758 39.631 H 0.0 **** 0.0
35251 C 66.487 18.514 92.696 C 0.0 **** 0.0
35252 H 66.534 18.566 93.784 H 0.0 **** 0.0
35253 H 67.393 18.043 92.315 H 0.0 **** 0.0
35254 H 66.402 19.522 92.288 H 0.0 **** 0.0
35255 H 65.618 17.927 92.397 H 0.0 **** 0.0
35256 C 40.077 10.396 39.413 C 0.0 **** 0.0
35257 H 40.19 10.264 40.489 H 0.0 **** 0.0
35258 H 40.593 11.305 39.103 H 0.0 **** 0.0
35259 H 39.018 10.477 39.166 H 0.0 **** 0.0
35260 H 40.506 9.539 38.894 H 0.0 **** 0.0
35261 C 80.961 75.11 11.205 C 0.0 **** 0.0
35262 H 80.533 76.018 11.629 H 0.0 **** 0.0
35263 H 81.823 74.803 11.799 H 0.0 **** 0.0
35264 H 81.277 75.302 10.179 H 0.0 **** 0.0
35265 H 80.213 74.317 11.212 H 0.0 **** 0.0
35266 C 12.36 66.593 16.675 C 0.0 **** 0.0
35267 H 12.513 66.627 17.754 H 0.0 **** 0.0
35268 H 12.94 67.386 16.201 H 0.0 **** 0.0
35269 H 11.302 66.735 16.454 H 0.0 **** 0.0
35270 H 12.685 65.626 16.292 H 0.0 **** 0.0
35271 C 12.563 79.916 30.424 C 0.0 **** 0.0
35272 H 12.956 79.372 31.283 H 0.0 **** 0.0
35273 H 12.638 79.292 29.533 H 0.0 **** 0.0
35274 H 13.141 80.829 30.277 H 0.0 **** 0.0
35275 H 11.519 80.172 30.602 H 0.0 **** 0.0
35276 C 62.433 78.046 17.384 C 0.0 **** 0.0
35277 H 63.257 77.652 16.789 H 0.0 **** 0.0
35278 H 62.164 79.038 17.02 H 0.0 **** 0.0
35279 H 62.738 78.112 18.429 H 0.0 **** 0.0
35280 H 61.573 77.382 17.299 H 0.0 **** 0.0
35281 C 62.118 52.629 64.88 C 0.0 **** 0.0
35282 H 61.982 53.705 64.985 H 0.0 **** 0.0
35283 H 62.351 52.195 65.853 H 0.0 **** 0.0
35284 H 62.938 52.433 64.189 H 0.0 **** 0.0
35285 H 61.202 52.183 64.493 H 0.0 **** 0.0
35286 C 15.837 63.661 0.675 C 0.0 **** 0.0
35287 H 16.257 64.41 0.003 H 0.0 **** 0.0
35288 H 14.751 63.756 0.692 H 0.0 **** 0.0
35289 H 16.232 63.812 1.68 H 0.0 **** 0.0
35290 H 16.109 62.665 0.324 H 0.0 **** 0.0
35291 C 37.5 66.216 74.396 C 0.0 **** 0.0
35292 H 37.54 66.193 73.307 H 0.0 **** 0.0
35293 H 38.051 67.083 74.761 H 0.0 **** 0.0
35294 H 37.947 65.306 74.795 H 0.0 **** 0.0
35295 H 36.461 66.282 74.72 H 0.0 **** 0.0
35296 C 47.112 76.481 83.606 C 0.0 **** 0.0
35297 H 46.664 76.747 84.564 H 0.0 **** 0.0
35298 H 46.382 76.631 82.81 H 0.0 **** 0.0
35299 H 47.418 75.435 83.627 H 0.0 **** 0.0
35300 H 47.983 77.111 83.425 H 0.0 **** 0.0
35301 C 52.749 75.787 96.064 C 0.0 **** 0.0
35302 H 53.528 76.369 96.557 H 0.0 **** 0.0
35303 H 51.988 76.461 95.669 H 0.0 **** 0.0
35304 H 52.294 75.107 96.784 H 0.0 **** 0.0
35305 H 53.186 75.212 95.248 H 0.0 **** 0.0
35306 C 3.749 35.236 94.091 C 0.0 **** 0.0
35307 H 2.983 34.465 94.164 H 0.0 **** 0.0
35308 H 3.491 35.931 93.291 H 0.0 **** 0.0
35309 H 4.711 34.773 93.874 H 0.0 **** 0.0
35310 H 3.811 35.777 95.036 H 0.0 **** 0.0
35311 C 11.455 24.46 96.016 C 0.0 **** 0.0
35312 H 12.124 25.22 95.613 H 0.0 **** 0.0
35313 H 10.513 24.479 95.468 H 0.0 **** 0.0
35314 H 11.268 24.664 97.07 H 0.0 **** 0.0
35315 H 11.917 23.478 95.912 H 0.0 **** 0.0
35316 C 49.535 36.979 46.643 C 0.0 **** 0.0
35317 H 48.826 36.433 47.265 H 0.0 **** 0.0
35318 H 50.546 36.816 47.017 H 0.0 **** 0.0
35319 H 49.302 38.044 46.677 H 0.0 **** 0.0
35320 H 49.465 36.625 45.615 H 0.0 **** 0.0
35321 C 3.229 44.594 60.004 C 0.0 **** 0.0
35322 H 3.976 44.216 60.702 H 0.0 **** 0.0
35323 H 2.597 45.324 60.509 H 0.0 **** 0.0
35324 H 2.615 43.767 59.647 H 0.0 **** 0.0
35325 H 3.729 45.067 59.159 H 0.0 **** 0.0
35326 C 60.078 50.958 2.22 C 0.0 **** 0.0
35327 H 60.728 51.406 2.971 H 0.0 **** 0.0
35328 H 60.117 49.872 2.307 H 0.0 **** 0.0
35329 H 60.412 51.255 1.226 H 0.0 **** 0.0
35330 H 59.054 51.299 2.376 H 0.0 **** 0.0
35331 C 42.909 28.107 62.098 C 0.0 **** 0.0
35332 H 42.722 28.223 63.165 H 0.0 **** 0.0
35333 H 42.582 27.117 61.777 H 0.0 **** 0.0
35334 H 43.976 28.219 61.902 H 0.0 **** 0.0
35335 H 42.357 28.869 61.547 H 0.0 **** 0.0
35336 C 36.446 69.133 11.75 C 0.0 **** 0.0
35337 H 37.253 69.006 11.028 H 0.0 **** 0.0
35338 H 36.151 68.159 12.141 H 0.0 **** 0.0
35339 H 35.592 69.602 11.261 H 0.0 **** 0.0
35340 H 36.788 69.766 12.569 H 0.0 **** 0.0
35341 C 69.496 92.888 73.015 C 0.0 **** 0.0
35342 H 69.873 93.089 72.012 H 0.0 **** 0.0
35343 H 70.208 92.26 73.551 H 0.0 **** 0.0
35344 H 68.537 92.375 72.947 H 0.0 **** 0.0
35345 H 69.368 93.83 73.55 H 0.0 **** 0.0
35346 C 2.424 37.399 69.25 C 0.0 **** 0.0
35347 H 2.62 36.711 68.428 H 0.0 **** 0.0
35348 H 1.588 37.027 69.843 H 0.0 **** 0.0
35349 H 2.177 38.383 68.85 H 0.0 **** 0.0
35350 H 3.311 37.474 69.879 H 0.0 **** 0.0
35351 C 79.854 2.772 63.883 C 0.0 **** 0.0
35352 H 79.859 2.766 64.973 H 0.0 **** 0.0
35353 H 79.168 2.007 63.519 H 0.0 **** 0.0
35354 H 80.859 2.565 63.515 H 0.0 **** 0.0
35355 H 79.531 3.75 63.527 H 0.0 **** 0.0
35356 C 11.967 10.013 2.873 C 0.0 **** 0.0
35357 H 12.239 10.286 1.853 H 0.0 **** 0.0
35358 H 10.986 9.537 2.871 H 0.0 **** 0.0
35359 H 11.936 10.909 3.493 H 0.0 **** 0.0
35360 H 12.706 9.319 3.273 H 0.0 **** 0.0
35361 C 22.173 65.476 80.056 C 0.0 **** 0.0
35362 H 21.175 65.642 80.461 H 0.0 **** 0.0
35363 H 22.799 66.344 80.265 H 0.0 **** 0.0
35364 H 22.108 65.326 78.978 H 0.0 **** 0.0
35365 H 22.611 64.592 80.52 H 0.0 **** 0.0
35366 C 94.163 60.974 87.429 C 0.0 **** 0.0
35367 H 94.375 61.822 86.778 H 0.0 **** 0.0
35368 H 94.57 61.168 88.422 H 0.0 **** 0.0
35369 H 94.622 60.076 87.017 H 0.0 **** 0.0
35370 H 93.085 60.832 87.5 H 0.0 **** 0.0
35371 C 85.252 26.063 73.894 C 0.0 **** 0.0
35372 H 84.865 26.219 72.887 H 0.0 **** 0.0
35373 H 84.427 25.831 74.568 H 0.0 **** 0.0
35374 H 85.755 26.968 74.234 H 0.0 **** 0.0
35375 H 85.96 25.235 73.886 H 0.0 **** 0.0
35376 C 71.57 63.638 7.865 C 0.0 **** 0.0
35377 H 70.688 63.852 7.262 H 0.0 **** 0.0
35378 H 72.454 64.049 7.376 H 0.0 **** 0.0
35379 H 71.683 62.559 7.973 H 0.0 **** 0.0
35380 H 71.456 64.091 8.85 H 0.0 **** 0.0
35381 C 36.86 81.965 69.075 C 0.0 **** 0.0
35382 H 37.534 82.348 68.308 H 0.0 **** 0.0
35383 H 35.996 81.501 68.599 H 0.0 **** 0.0
35384 H 36.528 82.787 69.709 H 0.0 **** 0.0
35385 H 37.382 81.226 69.682 H 0.0 **** 0.0
35386 C 8.119 50.753 96.388 C 0.0 **** 0.0
35387 H 8.026 51.563 95.664 H 0.0 **** 0.0
35388 H 9.138 50.365 96.368 H 0.0 **** 0.0
35389 H 7.422 49.955 96.132 H 0.0 **** 0.0
35390 H 7.892 51.129 97.385 H 0.0 **** 0.0
35391 C 26.739 43.018 42.792 C 0.0 **** 0.0
35392 H 27.141 43.22 43.785 H 0.0 **** 0.0
35393 H 27.276 43.616 42.055 H 0.0 **** 0.0
35394 H 25.681 43.277 42.769 H 0.0 **** 0.0
35395 H 26.86 41.96 42.56 H 0.0 **** 0.0
35396 C 33.833 65.875 89.682 C 0.0 **** 0.0
35397 H 33.618 65.694 90.735 H 0.0 **** 0.0
35398 H 33.985 66.942 89.521 H 0.0 **** 0.0
35399 H 32.995 65.531 89.076 H 0.0 **** 0.0
35400 H 34.734 65.332 89.397 H 0.0 **** 0.0
35401 C 74.259 65.856 69.087 C 0.0 **** 0.0
35402 H 74.832 65.371 68.296 H 0.0 **** 0.0
35403 H 74.047 66.886 68.803 H 0.0 **** 0.0
35404 H 74.837 65.845 70.012 H 0.0 **** 0.0
35405 H 73.322 65.32 69.237 H 0.0 **** 0.0
35406 C 83.356 44.536 20.909 C 0.0 **** 0.0
35407 H 84.063 44.804 21.694 H 0.0 **** 0.0
35408 H 83.847 44.605 19.938 H 0.0 **** 0.0
35409 H 82.506 45.219 20.936 H 0.0 **** 0.0
35410 H 83.007 43.516 21.068 H 0.0 **** 0.0
35411 C 67.082 1.292 38.19 C 0.0 **** 0.0
35412 H 67.116 1.957 37.328 H 0.0 **** 0.0
35413 H 67.977 0.67 38.204 H 0.0 **** 0.0
35414 H 66.199 0.656 38.124 H 0.0 **** 0.0
35415 H 67.036 1.884 39.104 H 0.0 **** 0.0
35416 C 9.852 21.41 63.898 C 0.0 **** 0.0
35417 H 8.884 21.326 63.405 H 0.0 **** 0.0
35418 H 10.376 22.29 63.523 H 0.0 **** 0.0
35419 H 10.444 20.519 63.691 H 0.0 **** 0.0
35420 H 9.705 21.506 64.974 H 0.0 **** 0.0
35421 C 94.139 68.653 21.843 C 0.0 **** 0.0
35422 H 95.01 68.628 21.188 H 0.0 **** 0.0
35423 H 93.335 69.206 21.357 H 0.0 **** 0.0
35424 H 94.403 69.143 22.78 H 0.0 **** 0.0
35425 H 93.808 67.634 22.046 H 0.0 **** 0.0
35426 C 92.686 25.171 64.799 C 0.0 **** 0.0
35427 H 92.013 24.507 65.342 H 0.0 **** 0.0
35428 H 92.134 26.048 64.459 H 0.0 **** 0.0
35429 H 93.099 24.644 63.939 H 0.0 **** 0.0
35430 H 93.497 25.484 65.457 H 0.0 **** 0.0
35431 C 36.092 51.847 83.783 C 0.0 **** 0.0
35432 H 37.083 51.92 84.229 H 0.0 **** 0.0
35433 H 36.076 51.027 83.065 H 0.0 **** 0.0
35434 H 35.853 52.781 83.274 H 0.0 **** 0.0
35435 H 35.354 51.66 84.564 H 0.0 **** 0.0
35436 C 4.552 95.653 86.231 C 0.0 **** 0.0
35437 H 3.897 94.822 85.972 H 0.0 **** 0.0
35438 H 4.945 96.104 85.319 H 0.0 **** 0.0
35439 H 5.378 95.288 86.841 H 0.0 **** 0.0
35440 H 3.989 96.399 86.792 H 0.0 **** 0.0
35441 C 8.335 81.218 70.126 C 0.0 **** 0.0
35442 H 8.379 81.319 69.042 H 0.0 **** 0.0
35443 H 7.379 80.778 70.411 H 0.0 **** 0.0
35444 H 8.434 82.201 70.586 H 0.0 **** 0.0
35445 H 9.147 80.575 70.465 H 0.0 **** 0.0
35446 C 64.534 45.905 6.421 C 0.0 **** 0.0
35447 H 65.258 45.508 5.709 H 0.0 **** 0.0
35448 H 64.241 46.91 6.12 H 0.0 **** 0.0
35449 H 64.982 45.939 7.414 H 0.0 **** 0.0
35450 H 63.655 45.26 6.442 H 0.0 **** 0.0
35451 C 87.722 24.411 93.088 C 0.0 **** 0.0
35452 H 87.787 24.296 92.006 H 0.0 **** 0.0
35453 H 87.414 23.465 93.535 H 0.0 **** 0.0
35454 H 86.99 25.182 93.328 H 0.0 **** 0.0
35455 H 88.696 24.699 93.482 H 0.0 **** 0.0
35456 C 7.473 36.409 36.146 C 0.0 **** 0.0
35457 H 7.092 37.429 36.097 H 0.0 **** 0.0
35458 H 7.148 35.944 37.077 H 0.0 **** 0.0
35459 H 8.563 36.426 36.11 H 0.0 **** 0.0
35460 H 7.091 35.838 35.3 H 0.0 **** 0.0
35461 C 78.995 55.452 9.42 C 0.0 **** 0.0
35462 H 78.35 54.937 10.132 H 0.0 **** 0.0
35463 H 78.67 56.487 9.319 H 0.0 **** 0.0
35464 H 78.935 54.955 8.451 H 0.0 **** 0.0
35465 H 80.024 55.426 9.778 H 0.0 **** 0.0
35466 C 55.3 5.019 54.499 C 0.0 **** 0.0
35467 H 55.25 4.945 55.585 H 0.0 **** 0.0
35468 H 54.509 4.414 54.057 H 0.0 **** 0.0
35469 H 56.27 4.658 54.156 H 0.0 **** 0.0
35470 H 55.173 6.059 54.2 H 0.0 **** 0.0
35471 C 93.184 83.72 98.001 C 0.0 **** 0.0
35472 H 93.088 83.301 99.003 H 0.0 **** 0.0
35473 H 92.201 84.021 97.638 H 0.0 **** 0.0
35474 H 93.605 82.969 97.332 H 0.0 **** 0.0
35475 H 93.842 84.588 98.032 H 0.0 **** 0.0
35476 C 7.556 31.389 6.405 C 0.0 **** 0.0
35477 H 7.542 31.581 7.478 H 0.0 **** 0.0
35478 H 7.28 32.298 5.87 H 0.0 **** 0.0
35479 H 6.845 30.598 6.169 H 0.0 **** 0.0
35480 H 8.557 31.08 6.105 H 0.0 **** 0.0
35481 C 76.486 28.05 69.759 C 0.0 **** 0.0
35482 H 76.123 28.601 68.891 H 0.0 **** 0.0
35483 H 75.694 27.403 70.136 H 0.0 **** 0.0
35484 H 76.783 28.753 70.537 H 0.0 **** 0.0
35485 H 77.345 27.444 69.47 H 0.0 **** 0.0
35486 C 59.661 16.517 87.78 C 0.0 **** 0.0
35487 H 60.133 17.284 88.394 H 0.0 **** 0.0
35488 H 60.391 16.114 87.078 H 0.0 **** 0.0
35489 H 58.828 16.954 87.229 H 0.0 **** 0.0
35490 H 59.293 15.715 88.421 H 0.0 **** 0.0
35491 C 90.996 91.576 34.631 C 0.0 **** 0.0
35492 H 91.352 91.59 35.662 H 0.0 **** 0.0
35493 H 89.947 91.282 34.613 H 0.0 **** 0.0
35494 H 91.584 90.861 34.054 H 0.0 **** 0.0
35495 H 91.104 92.57 34.196 H 0.0 **** 0.0
35496 C 47.128 85.843 67.122 C 0.0 **** 0.0
35497 H 47.067 85.82 68.21 H 0.0 **** 0.0
35498 H 46.426 85.121 66.703 H 0.0 **** 0.0
35499 H 48.141 85.589 66.809 H 0.0 **** 0.0
35500 H 46.877 86.842 66.765 H 0.0 **** 0.0
35501 C 66.393 74.276 75.29 C 0.0 **** 0.0
35502 H 67.105 73.451 75.28 H 0.0 **** 0.0
35503 H 65.508 73.998 74.717 H 0.0 **** 0.0
35504 H 66.853 75.157 74.843 H 0.0 **** 0.0
35505 H 66.107 74.497 76.318 H 0.0 **** 0.0
35506 C 76.409 72.922 89.846 C 0.0 **** 0.0
35507 H 76.69 72.927 90.899 H 0.0 **** 0.0
35508 H 75.992 71.949 89.586 H 0.0 **** 0.0
35509 H 77.291 73.114 89.234 H 0.0 **** 0.0
35510 H 75.665 73.697 89.665 H 0.0 **** 0.0
35511 C 4.484 53.288 90.807 C 0.0 **** 0.0
35512 H 4.708 52.436 91.449 H 0.0 **** 0.0
35513 H 4.895 53.111 89.813 H 0.0 **** 0.0
35514 H 4.93 54.188 91.23 H 0.0 **** 0.0
35515 H 3.404 53.416 90.737 H 0.0 **** 0.0
35516 C 91.913 31.947 92.917 C 0.0 **** 0.0
35517 H 92.083 31.247 93.735 H 0.0 **** 0.0
35518 H 92.699 31.831 92.17 H 0.0 **** 0.0
35519 H 91.926 32.967 93.303 H 0.0 **** 0.0
35520 H 90.944 31.743 92.46 H 0.0 **** 0.0
35521 C 29.244 93.739 53.934 C 0.0 **** 0.0
35522 H 29.746 93.173 54.719 H 0.0 **** 0.0
35523 H 29.555 93.362 52.96 H 0.0 **** 0.0
35524 H 29.511 94.793 54.019 H 0.0 **** 0.0
35525 H 28.165 93.628 54.04 H 0.0 **** 0.0
35526 C 34.809 78.523 16.959 C 0.0 **** 0.0
35527 H 33.966 78.375 16.284 H 0.0 **** 0.0
35528 H 34.493 79.13 17.808 H 0.0 **** 0.0
35529 H 35.614 79.031 16.428 H 0.0 **** 0.0
35530 H 35.162 77.555 17.316 H 0.0 **** 0.0
35531 C 28.03 27.89 49.374 C 0.0 **** 0.0
35532 H 28.753 27.436 48.697 H 0.0 **** 0.0
35533 H 27.093 27.334 49.33 H 0.0 **** 0.0
35534 H 27.854 28.924 49.077 H 0.0 **** 0.0
35535 H 28.42 27.865 50.391 H 0.0 **** 0.0
35536 C 80.753 72.283 91.167 C 0.0 **** 0.0
35537 H 80.953 72.449 92.226 H 0.0 **** 0.0
35538 H 80.536 73.237 90.685 H 0.0 **** 0.0
35539 H 79.896 71.618 91.06 H 0.0 **** 0.0
35540 H 81.627 71.829 90.7 H 0.0 **** 0.0
35541 C 66.088 2.077 29.734 C 0.0 **** 0.0
35542 H 66.283 2.355 28.698 H 0.0 **** 0.0
35543 H 66.986 1.635 30.167 H 0.0 **** 0.0
35544 H 65.274 1.354 29.769 H 0.0 **** 0.0
35545 H 65.81 2.965 30.302 H 0.0 **** 0.0
35546 C 94.15 1.133 97.183 C 0.0 **** 0.0
35547 H 95.214 1.372 97.172 H 0.0 **** 0.0
35548 H 93.76 1.17 96.165 H 0.0 **** 0.0
35549 H 93.622 1.857 97.802 H 0.0 **** 0.0
35550 H 94.007 0.132 97.59 H 0.0 **** 0.0
35551 C 22.445 83.892 78.931 C 0.0 **** 0.0
35552 H 22.506 83.587 79.975 H 0.0 **** 0.0
35553 H 22.127 83.045 78.322 H 0.0 **** 0.0
35554 H 23.424 84.234 78.595 H 0.0 **** 0.0
35555 H 21.723 84.703 78.831 H 0.0 **** 0.0
35556 C 3.351 78.959 36.221 C 0.0 **** 0.0
35557 H 2.882 79.682 35.555 H 0.0 **** 0.0
35558 H 3.404 77.989 35.725 H 0.0 **** 0.0
35559 H 2.761 78.87 37.133 H 0.0 **** 0.0
35560 H 4.358 79.295 36.47 H 0.0 **** 0.0
35561 C 89.207 63.711 3.878 C 0.0 **** 0.0
35562 H 89.069 64.079 4.895 H 0.0 **** 0.0
35563 H 88.278 63.831 3.319 H 0.0 **** 0.0
35564 H 89.479 62.656 3.908 H 0.0 **** 0.0
35565 H 90.0 64.277 3.391 H 0.0 **** 0.0
35566 C 42.236 20.041 56.276 C 0.0 **** 0.0
35567 H 41.182 20.155 56.531 H 0.0 **** 0.0
35568 H 42.334 19.884 55.202 H 0.0 **** 0.0
35569 H 42.648 19.184 56.809 H 0.0 **** 0.0
35570 H 42.777 20.942 56.563 H 0.0 **** 0.0
35571 C 30.627 43.759 7.997 C 0.0 **** 0.0
35572 H 30.766 44.255 8.957 H 0.0 **** 0.0
35573 H 31.546 43.831 7.415 H 0.0 **** 0.0
35574 H 29.814 44.24 7.454 H 0.0 **** 0.0
35575 H 30.384 42.709 8.163 H 0.0 **** 0.0
35576 C 61.994 85.448 24.588 C 0.0 **** 0.0
35577 H 62.292 86.446 24.912 H 0.0 **** 0.0
35578 H 62.882 84.835 24.435 H 0.0 **** 0.0
35579 H 61.437 85.522 23.654 H 0.0 **** 0.0
35580 H 61.364 84.992 25.352 H 0.0 **** 0.0
35581 C 3.288 97.741 15.094 C 0.0 **** 0.0
35582 H 2.413 97.652 14.45 H 0.0 **** 0.0
35583 H 3.84 96.8 15.088 H 0.0 **** 0.0
35584 H 2.97 97.969 16.111 H 0.0 **** 0.0
35585 H 3.93 98.541 14.725 H 0.0 **** 0.0
35586 C 1.325 85.437 5.435 C 0.0 **** 0.0
35587 H 1.12 84.818 4.562 H 0.0 **** 0.0
35588 H 0.666 86.305 5.428 H 0.0 **** 0.0
35589 H 2.363 85.768 5.41 H 0.0 **** 0.0
35590 H 1.151 84.855 6.341 H 0.0 **** 0.0
35591 C 28.53 68.23 84.1 C 0.0 **** 0.0
35592 H 28.695 68.087 85.168 H 0.0 **** 0.0
35593 H 29.468 68.083 83.564 H 0.0 **** 0.0
35594 H 28.164 69.241 83.923 H 0.0 **** 0.0
35595 H 27.792 67.509 83.747 H 0.0 **** 0.0
35596 C 71.182 92.281 13.647 C 0.0 **** 0.0
35597 H 71.236 92.148 14.727 H 0.0 **** 0.0
35598 H 72.18 92.476 13.255 H 0.0 **** 0.0
35599 H 70.529 93.123 13.416 H 0.0 **** 0.0
35600 H 70.783 91.375 13.19 H 0.0 **** 0.0
35601 C 72.164 44.249 14.597 C 0.0 **** 0.0
35602 H 72.868 45.024 14.295 H 0.0 **** 0.0
35603 H 71.167 44.504 14.238 H 0.0 **** 0.0
35604 H 72.151 44.174 15.684 H 0.0 **** 0.0
35605 H 72.471 43.294 14.17 H 0.0 **** 0.0
35606 C 21.767 91.126 63.31 C 0.0 **** 0.0
35607 H 21.251 90.823 64.221 H 0.0 **** 0.0
35608 H 22.568 90.419 63.093 H 0.0 **** 0.0
35609 H 22.188 92.122 63.445 H 0.0 **** 0.0
35610 H 21.06 91.14 62.48 H 0.0 **** 0.0
35611 C 24.967 44.708 50.231 C 0.0 **** 0.0
35612 H 25.122 45.319 49.342 H 0.0 **** 0.0
35613 H 24.609 43.722 49.936 H 0.0 **** 0.0
35614 H 24.229 45.186 50.876 H 0.0 **** 0.0
35615 H 25.909 44.607 50.771 H 0.0 **** 0.0
35616 C 71.287 82.062 32.999 C 0.0 **** 0.0
35617 H 70.895 81.97 31.986 H 0.0 **** 0.0
35618 H 70.634 81.529 33.69 H 0.0 **** 0.0
35619 H 71.33 83.115 33.277 H 0.0 **** 0.0
35620 H 72.289 81.634 33.04 H 0.0 **** 0.0
35621 C 54.568 21.958 18.195 C 0.0 **** 0.0
35622 H 54.748 22.821 17.554 H 0.0 **** 0.0
35623 H 54.11 22.287 19.128 H 0.0 **** 0.0
35624 H 55.514 21.461 18.409 H 0.0 **** 0.0
35625 H 53.899 21.262 17.687 H 0.0 **** 0.0
35626 C 23.655 14.478 57.61 C 0.0 **** 0.0
35627 H 23.719 14.429 58.697 H 0.0 **** 0.0
35628 H 24.658 14.55 57.19 H 0.0 **** 0.0
35629 H 23.074 15.353 57.32 H 0.0 **** 0.0
35630 H 23.167 13.578 57.235 H 0.0 **** 0.0
35631 C 15.468 31.583 54.989 C 0.0 **** 0.0
35632 H 14.472 31.142 54.953 H 0.0 **** 0.0
35633 H 15.384 32.67 54.992 H 0.0 **** 0.0
35634 H 16.039 31.265 54.117 H 0.0 **** 0.0
35635 H 15.978 31.255 55.896 H 0.0 **** 0.0
35636 C 0.972 26.807 13.267 C 0.0 **** 0.0
35637 H 1.234 26.758 14.324 H 0.0 **** 0.0
35638 H 1.727 26.282 12.681 H 0.0 **** 0.0
35639 H 0.927 27.849 12.952 H 0.0 **** 0.0
35640 H 0.0 26.338 13.112 H 0.0 **** 0.0
35641 C 87.757 38.1 15.702 C 0.0 **** 0.0
35642 H 88.507 38.865 15.504 H 0.0 **** 0.0
35643 H 86.791 38.575 15.877 H 0.0 **** 0.0
35644 H 88.046 37.527 16.583 H 0.0 **** 0.0
35645 H 87.684 37.433 14.843 H 0.0 **** 0.0
35646 C 36.754 89.342 22.807 C 0.0 **** 0.0
35647 H 36.746 89.272 23.895 H 0.0 **** 0.0
35648 H 36.007 88.663 22.395 H 0.0 **** 0.0
35649 H 37.74 89.069 22.433 H 0.0 **** 0.0
35650 H 36.521 90.364 22.508 H 0.0 **** 0.0
35651 C 20.152 1.609 1.009 C 0.0 **** 0.0
35652 H 20.759 1.023 0.318 H 0.0 **** 0.0
35653 H 20.804 2.167 1.681 H 0.0 **** 0.0
35654 H 19.516 0.941 1.589 H 0.0 **** 0.0
35655 H 19.531 2.305 0.445 H 0.0 **** 0.0
35656 C 18.317 82.974 1.658 C 0.0 **** 0.0
35657 H 18.596 82.939 0.605 H 0.0 **** 0.0
35658 H 18.332 84.008 2.004 H 0.0 **** 0.0
35659 H 19.025 82.385 2.241 H 0.0 **** 0.0
35660 H 17.315 82.564 1.781 H 0.0 **** 0.0
35661 C 20.18 83.927 64.173 C 0.0 **** 0.0
35662 H 20.314 84.832 63.58 H 0.0 **** 0.0
35663 H 19.128 83.819 64.438 H 0.0 **** 0.0
35664 H 20.778 83.997 65.081 H 0.0 **** 0.0
35665 H 20.499 83.062 63.593 H 0.0 **** 0.0
35666 C 4.242 48.841 77.842 C 0.0 **** 0.0
35667 H 4.287 49.816 77.357 H 0.0 **** 0.0
35668 H 3.319 48.765 78.417 H 0.0 **** 0.0
35669 H 5.097 48.727 78.509 H 0.0 **** 0.0
35670 H 4.265 48.057 77.085 H 0.0 **** 0.0
35671 C 67.928 37.815 38.118 C 0.0 **** 0.0
35672 H 67.216 37.268 38.737 H 0.0 **** 0.0
35673 H 68.227 38.73 38.631 H 0.0 **** 0.0
35674 H 67.463 38.068 37.166 H 0.0 **** 0.0
35675 H 68.807 37.195 37.941 H 0.0 **** 0.0
35676 C 18.416 64.773 88.262 C 0.0 **** 0.0
35677 H 18.64 64.606 87.209 H 0.0 **** 0.0
35678 H 19.288 65.204 88.755 H 0.0 **** 0.0
35679 H 18.163 63.824 88.735 H 0.0 **** 0.0
35680 H 17.574 65.459 88.35 H 0.0 **** 0.0
35681 C 27.078 53.943 27.407 C 0.0 **** 0.0
35682 H 26.658 53.334 28.208 H 0.0 **** 0.0
35683 H 26.269 54.373 26.816 H 0.0 **** 0.0
35684 H 27.704 53.32 26.768 H 0.0 **** 0.0
35685 H 27.68 54.743 27.838 H 0.0 **** 0.0
35686 C 17.599 14.037 30.967 C 0.0 **** 0.0
35687 H 17.831 13.843 29.92 H 0.0 **** 0.0
35688 H 17.211 13.128 31.427 H 0.0 **** 0.0
35689 H 16.849 14.826 31.032 H 0.0 **** 0.0
35690 H 18.503 14.352 31.487 H 0.0 **** 0.0
35691 C 84.724 32.627 42.308 C 0.0 **** 0.0
35692 H 84.219 32.658 43.273 H 0.0 **** 0.0
35693 H 84.292 31.835 41.697 H 0.0 **** 0.0
35694 H 85.786 32.432 42.46 H 0.0 **** 0.0
35695 H 84.6 33.585 41.803 H 0.0 **** 0.0
35696 C 33.937 62.14 62.456 C 0.0 **** 0.0
35697 H 33.08 62.658 62.024 H 0.0 **** 0.0
35698 H 33.982 61.123 62.064 H 0.0 **** 0.0
35699 H 33.833 62.108 63.54 H 0.0 **** 0.0
35700 H 34.852 62.671 62.194 H 0.0 **** 0.0
35701 C 68.004 65.182 32.43 C 0.0 **** 0.0
35702 H 67.591 64.21 32.161 H 0.0 **** 0.0
35703 H 69.084 65.17 32.285 H 0.0 **** 0.0
35704 H 67.78 65.395 33.476 H 0.0 **** 0.0
35705 H 67.56 65.952 31.8 H 0.0 **** 0.0
35706 C 51.533 25.083 26.158 C 0.0 **** 0.0
35707 H 52.23 24.257 26.301 H 0.0 **** 0.0
35708 H 52.0 26.012 26.484 H 0.0 **** 0.0
35709 H 50.632 24.903 26.745 H 0.0 **** 0.0
35710 H 51.27 25.158 25.103 H 0.0 **** 0.0
35711 C 33.613 13.363 77.015 C 0.0 **** 0.0
35712 H 34.018 13.222 76.013 H 0.0 **** 0.0
35713 H 34.399 13.733 77.675 H 0.0 **** 0.0
35714 H 33.24 12.411 77.393 H 0.0 **** 0.0
35715 H 32.798 14.085 76.98 H 0.0 **** 0.0
35716 C 32.661 63.351 84.837 C 0.0 **** 0.0
35717 H 32.327 63.781 83.893 H 0.0 **** 0.0
35718 H 32.387 62.297 84.873 H 0.0 **** 0.0
35719 H 32.187 63.879 85.665 H 0.0 **** 0.0
35720 H 33.744 63.448 84.917 H 0.0 **** 0.0
35721 C 97.695 21.908 73.761 C 0.0 **** 0.0
35722 H 98.692 22.21 73.44 H 0.0 **** 0.0
35723 H 97.7 21.722 74.835 H 0.0 **** 0.0
35724 H 97.405 20.999 73.235 H 0.0 **** 0.0
35725 H 96.985 22.702 73.533 H 0.0 **** 0.0
35726 C 82.33 93.267 76.292 C 0.0 **** 0.0
35727 H 82.591 93.617 75.293 H 0.0 **** 0.0
35728 H 82.601 94.028 77.025 H 0.0 **** 0.0
35729 H 82.871 92.346 76.507 H 0.0 **** 0.0
35730 H 81.258 93.079 76.342 H 0.0 **** 0.0
35731 C 51.933 57.938 88.388 C 0.0 **** 0.0
35732 H 51.88 57.926 89.476 H 0.0 **** 0.0
35733 H 52.818 57.393 88.061 H 0.0 **** 0.0
35734 H 51.991 58.969 88.039 H 0.0 **** 0.0
35735 H 51.041 57.465 87.976 H 0.0 **** 0.0
35736 C 90.752 87.465 90.394 C 0.0 **** 0.0
35737 H 91.116 87.593 91.413 H 0.0 **** 0.0
35738 H 91.458 87.917 89.697 H 0.0 **** 0.0
35739 H 89.78 87.948 90.292 H 0.0 **** 0.0
35740 H 90.654 86.401 90.174 H 0.0 **** 0.0
35741 C 58.83 3.886 91.821 C 0.0 **** 0.0
35742 H 58.651 4.011 92.889 H 0.0 **** 0.0
35743 H 59.551 3.083 91.665 H 0.0 **** 0.0
35744 H 59.225 4.814 91.408 H 0.0 **** 0.0
35745 H 57.894 3.636 91.322 H 0.0 **** 0.0
35746 C 87.956 86.118 86.753 C 0.0 **** 0.0
35747 H 89.002 85.884 86.556 H 0.0 **** 0.0
35748 H 87.319 85.444 86.179 H 0.0 **** 0.0
35749 H 87.753 87.148 86.459 H 0.0 **** 0.0
35750 H 87.75 85.996 87.816 H 0.0 **** 0.0
35751 C 72.059 62.88 54.221 C 0.0 **** 0.0
35752 H 71.492 63.749 54.555 H 0.0 **** 0.0
35753 H 73.09 62.965 54.566 H 0.0 **** 0.0
35754 H 72.042 62.832 53.132 H 0.0 **** 0.0
35755 H 71.611 61.975 54.632 H 0.0 **** 0.0
35756 C 6.604 64.223 82.637 C 0.0 **** 0.0
35757 H 6.942 63.929 83.631 H 0.0 **** 0.0
35758 H 6.912 63.471 81.911 H 0.0 **** 0.0
35759 H 7.045 65.185 82.374 H 0.0 **** 0.0
35760 H 5.517 64.309 82.634 H 0.0 **** 0.0
35761 C 97.7 58.759 64.96 C 0.0 **** 0.0
35762 H 97.367 57.743 64.752 H 0.0 **** 0.0
35763 H 98.272 59.135 64.111 H 0.0 **** 0.0
35764 H 98.327 58.761 65.851 H 0.0 **** 0.0
35765 H 96.832 59.399 65.124 H 0.0 **** 0.0
35766 C 38.25 44.742 26.489 C 0.0 **** 0.0
35767 H 37.486 44.18 25.953 H 0.0 **** 0.0
35768 H 39.208 44.227 26.401 H 0.0 **** 0.0
35769 H 37.974 44.819 27.54 H 0.0 **** 0.0
35770 H 38.334 45.741 26.06 H 0.0 **** 0.0
35771 C 19.622 36.866 40.003 C 0.0 **** 0.0
35772 H 19.428 37.87 39.625 H 0.0 **** 0.0
35773 H 20.639 36.571 39.746 H 0.0 **** 0.0
35774 H 18.916 36.167 39.555 H 0.0 **** 0.0
35775 H 19.503 36.857 41.087 H 0.0 **** 0.0
35776 C 12.433 65.024 66.438 C 0.0 **** 0.0
35777 H 12.931 64.366 67.151 H 0.0 **** 0.0
35778 H 11.636 65.57 66.943 H 0.0 **** 0.0
35779 H 12.01 64.428 65.629 H 0.0 **** 0.0
35780 H 13.155 65.731 66.03 H 0.0 **** 0.0
35781 C 62.918 33.462 28.226 C 0.0 **** 0.0
35782 H 62.177 33.421 29.024 H 0.0 **** 0.0
35783 H 63.77 34.06 28.553 H 0.0 **** 0.0
35784 H 62.474 33.916 27.34 H 0.0 **** 0.0
35785 H 63.252 32.452 27.988 H 0.0 **** 0.0
35786 C 23.748 31.934 50.79 C 0.0 **** 0.0
35787 H 22.825 31.574 51.244 H 0.0 **** 0.0
35788 H 23.743 33.024 50.773 H 0.0 **** 0.0
35789 H 23.823 31.555 49.77 H 0.0 **** 0.0
35790 H 24.6 31.583 51.371 H 0.0 **** 0.0
35791 C 72.36 61.417 50.452 C 0.0 **** 0.0
35792 H 71.839 60.914 51.266 H 0.0 **** 0.0
35793 H 72.412 62.486 50.659 H 0.0 **** 0.0
35794 H 71.82 61.253 49.519 H 0.0 **** 0.0
35795 H 73.369 61.013 50.363 H 0.0 **** 0.0
35796 C 4.156 36.586 63.434 C 0.0 **** 0.0
35797 H 3.88 36.486 64.483 H 0.0 **** 0.0
35798 H 5.193 36.277 63.3 H 0.0 **** 0.0
35799 H 4.044 37.626 63.126 H 0.0 **** 0.0
35800 H 3.507 35.955 62.826 H 0.0 **** 0.0
35801 C 27.273 39.901 73.167 C 0.0 **** 0.0
35802 H 26.793 39.947 74.144 H 0.0 **** 0.0
35803 H 27.232 38.879 72.79 H 0.0 **** 0.0
35804 H 28.313 40.214 73.259 H 0.0 **** 0.0
35805 H 26.753 40.565 72.476 H 0.0 **** 0.0
35806 C 72.54 0.928 90.614 C 0.0 **** 0.0
35807 H 73.304 0.995 89.839 H 0.0 **** 0.0
35808 H 72.656 -0.01 91.158 H 0.0 **** 0.0
35809 H 71.553 0.961 90.154 H 0.0 **** 0.0
35810 H 72.649 1.765 91.304 H 0.0 **** 0.0
35811 C 29.981 21.151 51.318 C 0.0 **** 0.0
35812 H 31.016 21.175 51.662 H 0.0 **** 0.0
35813 H 29.877 21.786 50.438 H 0.0 **** 0.0
35814 H 29.327 21.516 52.11 H 0.0 **** 0.0
35815 H 29.707 20.128 51.063 H 0.0 **** 0.0
35816 C 58.366 23.642 45.553 C 0.0 **** 0.0
35817 H 58.771 24.039 44.622 H 0.0 **** 0.0
35818 H 59.118 23.019 46.038 H 0.0 **** 0.0
35819 H 57.482 23.042 45.337 H 0.0 **** 0.0
35820 H 58.095 24.466 46.212 H 0.0 **** 0.0
35821 C 67.034 81.725 22.305 C 0.0 **** 0.0
35822 H 67.035 81.726 23.395 H 0.0 **** 0.0
35823 H 67.834 81.079 21.941 H 0.0 **** 0.0
35824 H 67.193 82.74 21.941 H 0.0 **** 0.0
35825 H 66.075 81.355 21.943 H 0.0 **** 0.0
35826 C 26.814 1.34 84.573 C 0.0 **** 0.0
35827 H 27.093 1.067 83.555 H 0.0 **** 0.0
35828 H 27.652 1.146 85.243 H 0.0 **** 0.0
35829 H 25.954 0.749 84.885 H 0.0 **** 0.0
35830 H 26.559 2.399 84.607 H 0.0 **** 0.0
35831 C 25.756 47.755 52.93 C 0.0 **** 0.0
35832 H 25.259 48.426 53.629 H 0.0 **** 0.0
35833 H 25.866 48.252 51.965 H 0.0 **** 0.0
35834 H 25.16 46.851 52.808 H 0.0 **** 0.0
35835 H 26.741 47.491 53.317 H 0.0 **** 0.0
35836 C 67.802 36.57 23.46 C 0.0 **** 0.0
35837 H 68.737 36.297 23.95 H 0.0 **** 0.0
35838 H 67.061 35.789 23.631 H 0.0 **** 0.0
35839 H 67.973 36.683 22.39 H 0.0 **** 0.0
35840 H 67.439 37.512 23.871 H 0.0 **** 0.0
35841 C 35.012 51.983 58.24 C 0.0 **** 0.0
35842 H 34.324 52.65 58.759 H 0.0 **** 0.0
35843 H 35.078 52.273 57.191 H 0.0 **** 0.0
35844 H 34.648 50.958 58.312 H 0.0 **** 0.0
35845 H 35.998 52.05 58.699 H 0.0 **** 0.0
35846 C 77.365 93.935 20.413 C 0.0 **** 0.0
35847 H 76.688 94.208 19.603 H 0.0 **** 0.0
35848 H 77.699 92.907 20.276 H 0.0 **** 0.0
35849 H 76.845 94.025 21.367 H 0.0 **** 0.0
35850 H 78.227 94.602 20.405 H 0.0 **** 0.0
35851 C 49.559 90.161 12.399 C 0.0 **** 0.0
35852 H 49.234 89.796 13.373 H 0.0 **** 0.0
35853 H 49.973 89.334 11.821 H 0.0 **** 0.0
35854 H 50.321 90.929 12.534 H 0.0 **** 0.0
35855 H 48.706 90.584 11.867 H 0.0 **** 0.0
35856 C 34.206 3.359 53.424 C 0.0 **** 0.0
35857 H 34.061 3.486 52.351 H 0.0 **** 0.0
35858 H 33.261 3.53 53.941 H 0.0 **** 0.0
35859 H 34.948 4.074 53.778 H 0.0 **** 0.0
35860 H 34.552 2.345 53.626 H 0.0 **** 0.0
35861 C 17.173 39.091 55.384 C 0.0 **** 0.0
35862 H 17.541 39.533 56.31 H 0.0 **** 0.0
35863 H 17.994 38.593 54.868 H 0.0 **** 0.0
35864 H 16.764 39.874 54.745 H 0.0 **** 0.0
35865 H 16.393 38.365 55.613 H 0.0 **** 0.0
35866 C 32.767 53.085 22.032 C 0.0 **** 0.0
35867 H 33.107 52.993 21.0 H 0.0 **** 0.0
35868 H 33.16 52.255 22.619 H 0.0 **** 0.0
35869 H 31.677 53.065 22.057 H 0.0 **** 0.0
35870 H 33.123 54.027 22.449 H 0.0 **** 0.0
35871 C 87.078 28.472 49.815 C 0.0 **** 0.0
35872 H 87.014 28.544 48.729 H 0.0 **** 0.0
35873 H 86.076 28.357 50.231 H 0.0 **** 0.0
35874 H 87.535 29.379 50.213 H 0.0 **** 0.0
35875 H 87.686 27.61 50.087 H 0.0 **** 0.0
35876 C 43.439 61.312 57.415 C 0.0 **** 0.0
35877 H 43.845 60.307 57.301 H 0.0 **** 0.0
35878 H 42.518 61.268 57.997 H 0.0 **** 0.0
35879 H 43.229 61.732 56.432 H 0.0 **** 0.0
35880 H 44.166 61.94 57.931 H 0.0 **** 0.0
35881 C 27.15 19.102 9.06 C 0.0 **** 0.0
35882 H 27.39 18.515 9.946 H 0.0 **** 0.0
35883 H 27.775 19.995 9.036 H 0.0 **** 0.0
35884 H 26.1 19.394 9.091 H 0.0 **** 0.0
35885 H 27.335 18.505 8.168 H 0.0 **** 0.0
35886 C 19.148 7.636 42.428 C 0.0 **** 0.0
35887 H 20.077 7.928 42.918 H 0.0 **** 0.0
35888 H 18.377 7.47 43.181 H 0.0 **** 0.0
35889 H 19.309 6.717 41.863 H 0.0 **** 0.0
35890 H 18.83 8.428 41.751 H 0.0 **** 0.0
35891 C 29.815 56.669 16.799 C 0.0 **** 0.0
35892 H 29.823 56.435 15.735 H 0.0 **** 0.0
35893 H 29.43 57.678 16.946 H 0.0 **** 0.0
35894 H 30.83 56.607 17.192 H 0.0 **** 0.0
35895 H 29.178 55.957 17.323 H 0.0 **** 0.0
35896 C 35.452 40.141 18.997 C 0.0 **** 0.0
35897 H 34.403 40.215 19.286 H 0.0 **** 0.0
35898 H 35.732 41.023 18.42 H 0.0 **** 0.0
35899 H 35.6 39.247 18.391 H 0.0 **** 0.0
35900 H 36.071 40.081 19.892 H 0.0 **** 0.0
35901 C 72.485 52.635 15.664 C 0.0 **** 0.0
35902 H 72.652 51.563 15.768 H 0.0 **** 0.0
35903 H 71.722 52.954 16.374 H 0.0 **** 0.0
35904 H 72.153 52.854 14.649 H 0.0 **** 0.0
35905 H 73.415 53.167 15.866 H 0.0 **** 0.0
35906 C 9.064 22.045 14.418 C 0.0 **** 0.0
35907 H 8.325 21.74 15.159 H 0.0 **** 0.0
35908 H 9.502 22.999 14.713 H 0.0 **** 0.0
35909 H 8.582 22.152 13.446 H 0.0 **** 0.0
35910 H 9.847 21.29 14.354 H 0.0 **** 0.0
35911 C 89.78 47.858 24.068 C 0.0 **** 0.0
35912 H 89.031 48.32 24.712 H 0.0 **** 0.0
35913 H 89.474 47.956 23.027 H 0.0 **** 0.0
35914 H 89.875 46.802 24.322 H 0.0 **** 0.0
35915 H 90.739 48.354 24.214 H 0.0 **** 0.0
35916 C 74.927 13.64 36.088 C 0.0 **** 0.0
35917 H 74.77 14.542 36.678 H 0.0 **** 0.0
35918 H 75.994 13.501 35.913 H 0.0 **** 0.0
35919 H 74.411 13.736 35.133 H 0.0 **** 0.0
35920 H 74.532 12.779 36.628 H 0.0 **** 0.0
35921 C 48.201 28.576 94.836 C 0.0 **** 0.0
35922 H 48.67 27.821 95.467 H 0.0 **** 0.0
35923 H 47.601 28.087 94.069 H 0.0 **** 0.0
35924 H 48.973 29.183 94.362 H 0.0 **** 0.0
35925 H 47.562 29.214 95.446 H 0.0 **** 0.0
35926 C 45.32 38.309 41.76 C 0.0 **** 0.0
35927 H 45.149 39.034 40.965 H 0.0 **** 0.0
35928 H 45.709 37.385 41.331 H 0.0 **** 0.0
35929 H 44.38 38.104 42.273 H 0.0 **** 0.0
35930 H 46.041 38.712 42.47 H 0.0 **** 0.0
35931 C 20.389 51.71 43.118 C 0.0 **** 0.0
35932 H 20.527 51.872 44.187 H 0.0 **** 0.0
35933 H 21.227 52.144 42.573 H 0.0 **** 0.0
35934 H 19.461 52.184 42.796 H 0.0 **** 0.0
35935 H 20.338 50.64 42.916 H 0.0 **** 0.0
35936 C 70.789 93.569 61.429 C 0.0 **** 0.0
35937 H 71.171 93.93 60.474 H 0.0 **** 0.0
35938 H 70.439 94.413 62.023 H 0.0 **** 0.0
35939 H 71.584 93.051 61.965 H 0.0 **** 0.0
35940 H 69.962 92.881 61.252 H 0.0 **** 0.0
35941 C 88.52 5.781 13.753 C 0.0 **** 0.0
35942 H 89.028 5.996 12.814 H 0.0 **** 0.0
35943 H 89.086 6.212 14.579 H 0.0 **** 0.0
35944 H 88.446 4.702 13.887 H 0.0 **** 0.0
35945 H 87.52 6.215 13.732 H 0.0 **** 0.0
35946 C 69.946 84.942 69.841 C 0.0 **** 0.0
35947 H 70.613 85.108 68.995 H 0.0 **** 0.0
35948 H 70.537 84.726 70.731 H 0.0 **** 0.0
35949 H 69.291 84.098 69.625 H 0.0 **** 0.0
35950 H 69.346 85.835 70.01 H 0.0 **** 0.0
35951 C 16.404 70.804 61.923 C 0.0 **** 0.0
35952 H 16.446 70.806 63.012 H 0.0 **** 0.0
35953 H 16.987 71.641 61.536 H 0.0 **** 0.0
35954 H 15.368 70.902 61.599 H 0.0 **** 0.0
35955 H 16.817 69.869 61.545 H 0.0 **** 0.0
35956 C 62.273 95.288 1.863 C 0.0 **** 0.0
35957 H 62.118 95.457 0.798 H 0.0 **** 0.0
35958 H 61.987 94.266 2.114 H 0.0 **** 0.0
35959 H 61.662 95.987 2.435 H 0.0 **** 0.0
35960 H 63.324 95.442 2.106 H 0.0 **** 0.0
35961 C 48.043 64.82 51.514 C 0.0 **** 0.0
35962 H 47.338 65.51 51.05 H 0.0 **** 0.0
35963 H 48.095 63.904 50.925 H 0.0 **** 0.0
35964 H 47.71 64.586 52.524 H 0.0 **** 0.0
35965 H 49.03 65.282 51.554 H 0.0 **** 0.0
35966 C 74.228 44.234 1.263 C 0.0 **** 0.0
35967 H 73.581 43.964 2.098 H 0.0 **** 0.0
35968 H 73.672 44.142 0.33 H 0.0 **** 0.0
35969 H 75.089 43.567 1.241 H 0.0 **** 0.0
35970 H 74.567 45.263 1.384 H 0.0 **** 0.0
35971 C 73.744 9.436 9.643 C 0.0 **** 0.0
35972 H 72.9 9.761 9.035 H 0.0 **** 0.0
35973 H 73.376 8.936 10.539 H 0.0 **** 0.0
35974 H 74.341 10.302 9.929 H 0.0 **** 0.0
35975 H 74.36 8.745 9.068 H 0.0 **** 0.0
35976 C 71.18 49.95 40.905 C 0.0 **** 0.0
35977 H 71.21 50.205 39.846 H 0.0 **** 0.0
35978 H 72.191 49.746 41.259 H 0.0 **** 0.0
35979 H 70.559 49.065 41.048 H 0.0 **** 0.0
35980 H 70.759 50.784 41.467 H 0.0 **** 0.0
35981 C 6.061 25.035 68.084 C 0.0 **** 0.0
35982 H 6.07 24.35 67.237 H 0.0 **** 0.0
35983 H 5.952 26.058 67.723 H 0.0 **** 0.0
35984 H 6.996 24.942 68.636 H 0.0 **** 0.0
35985 H 5.226 24.79 68.74 H 0.0 **** 0.0
35986 C 32.113 46.977 13.003 C 0.0 **** 0.0
35987 H 31.721 47.283 12.034 H 0.0 **** 0.0
35988 H 32.312 45.905 12.992 H 0.0 **** 0.0
35989 H 31.382 47.203 13.779 H 0.0 **** 0.0
35990 H 33.038 47.516 13.207 H 0.0 **** 0.0
35991 C 89.39 18.439 23.094 C 0.0 **** 0.0
35992 H 89.813 18.153 24.056 H 0.0 **** 0.0
35993 H 90.194 18.703 22.407 H 0.0 **** 0.0
35994 H 88.73 19.296 23.227 H 0.0 **** 0.0
35995 H 88.822 17.603 22.685 H 0.0 **** 0.0
35996 C 70.563 19.719 42.588 C 0.0 **** 0.0
35997 H 70.011 19.122 41.862 H 0.0 **** 0.0
35998 H 70.172 20.737 42.593 H 0.0 **** 0.0
35999 H 71.618 19.735 42.317 H 0.0 **** 0.0
36000 H 70.449 19.28 43.579 H 0.0 **** 0.0
36001 C 27.704 50.045 67.548 C 0.0 **** 0.0
36002 H 26.658 50.346 67.622 H 0.0 **** 0.0
36003 H 28.314 50.912 67.295 H 0.0 **** 0.0
36004 H 27.809 49.287 66.773 H 0.0 **** 0.0
36005 H 28.031 49.636 68.504 H 0.0 **** 0.0
36006 C 55.626 27.666 96.712 C 0.0 **** 0.0
36007 H 54.888 28.46 96.601 H 0.0 **** 0.0
36008 H 56.619 28.061 96.498 H 0.0 **** 0.0
36009 H 55.398 26.859 96.015 H 0.0 **** 0.0
36010 H 55.598 27.284 97.732 H 0.0 **** 0.0
36011 C 27.989 86.223 71.862 C 0.0 **** 0.0
36012 H 27.878 86.131 70.781 H 0.0 **** 0.0
36013 H 27.012 86.394 72.313 H 0.0 **** 0.0
36014 H 28.647 87.061 72.089 H 0.0 **** 0.0
36015 H 28.418 85.304 72.262 H 0.0 **** 0.0
36016 C 12.781 72.63 84.947 C 0.0 **** 0.0
36017 H 13.049 71.904 85.714 H 0.0 **** 0.0
36018 H 12.592 73.597 85.414 H 0.0 **** 0.0
36019 H 11.883 72.295 84.428 H 0.0 **** 0.0
36020 H 13.6 72.724 84.234 H 0.0 **** 0.0
36021 C 33.501 97.62 27.174 C 0.0 **** 0.0
36022 H 33.539 96.796 27.886 H 0.0 **** 0.0
36023 H 32.573 98.176 27.31 H 0.0 **** 0.0
36024 H 33.544 97.225 26.159 H 0.0 **** 0.0
36025 H 34.35 98.283 27.341 H 0.0 **** 0.0
36026 C 66.045 30.464 83.757 C 0.0 **** 0.0
36027 H 65.389 30.448 84.627 H 0.0 **** 0.0
36028 H 66.261 31.497 83.484 H 0.0 **** 0.0
36029 H 65.555 29.962 82.923 H 0.0 **** 0.0
36030 H 66.976 29.949 83.995 H 0.0 **** 0.0
36031 C 61.001 72.853 78.56 C 0.0 **** 0.0
36032 H 62.061 72.819 78.307 H 0.0 **** 0.0
36033 H 60.663 71.855 78.839 H 0.0 **** 0.0
36034 H 60.433 73.201 77.697 H 0.0 **** 0.0
36035 H 60.849 73.536 79.395 H 0.0 **** 0.0
36036 C 91.603 98.194 25.938 C 0.0 **** 0.0
36037 H 90.766 98.535 25.329 H 0.0 **** 0.0
36038 H 91.889 97.187 25.633 H 0.0 **** 0.0
36039 H 91.309 98.187 26.988 H 0.0 **** 0.0
36040 H 92.449 98.869 25.802 H 0.0 **** 0.0
36041 C 85.147 41.985 16.206 C 0.0 **** 0.0
36042 H 85.178 42.621 15.321 H 0.0 **** 0.0
36043 H 84.322 41.279 16.116 H 0.0 **** 0.0
36044 H 85.002 42.603 17.092 H 0.0 **** 0.0
36045 H 86.086 41.439 16.293 H 0.0 **** 0.0
36046 C 60.982 23.154 76.684 C 0.0 **** 0.0
36047 H 60.508 23.897 77.325 H 0.0 **** 0.0
36048 H 60.218 22.622 76.117 H 0.0 **** 0.0
36049 H 61.538 22.446 77.299 H 0.0 **** 0.0
36050 H 61.665 23.652 75.996 H 0.0 **** 0.0
36051 C 3.22 54.538 84.012 C 0.0 **** 0.0
36052 H 2.715 54.483 83.048 H 0.0 **** 0.0
36053 H 2.807 55.364 84.592 H 0.0 **** 0.0
36054 H 4.286 54.702 83.855 H 0.0 **** 0.0
36055 H 3.072 53.604 84.554 H 0.0 **** 0.0
36056 C 86.409 76.769 0.863 C 0.0 **** 0.0
36057 H 87.021 77.034 0.001 H 0.0 **** 0.0
36058 H 85.423 77.224 0.762 H 0.0 **** 0.0
36059 H 86.886 77.134 1.773 H 0.0 **** 0.0
36060 H 86.306 75.686 0.916 H 0.0 **** 0.0
36061 C 54.499 33.738 95.944 C 0.0 **** 0.0
36062 H 55.23 34.078 96.676 H 0.0 **** 0.0
36063 H 54.127 34.592 95.378 H 0.0 **** 0.0
36064 H 53.669 33.253 96.458 H 0.0 **** 0.0
36065 H 54.969 33.027 95.264 H 0.0 **** 0.0
36066 C 74.874 50.489 10.034 C 0.0 **** 0.0
36067 H 75.04 50.686 8.975 H 0.0 **** 0.0
36068 H 75.391 49.572 10.318 H 0.0 **** 0.0
36069 H 73.806 50.377 10.22 H 0.0 **** 0.0
36070 H 75.26 51.322 10.623 H 0.0 **** 0.0
36071 C 49.735 47.675 6.536 C 0.0 **** 0.0
36072 H 49.049 47.032 7.087 H 0.0 **** 0.0
36073 H 50.591 47.917 7.165 H 0.0 **** 0.0
36074 H 49.221 48.594 6.251 H 0.0 **** 0.0
36075 H 50.077 47.157 5.64 H 0.0 **** 0.0
36076 C 76.023 43.902 37.722 C 0.0 **** 0.0
36077 H 75.09 44.108 37.198 H 0.0 **** 0.0
36078 H 75.911 42.998 38.321 H 0.0 **** 0.0
36079 H 76.267 44.742 38.372 H 0.0 **** 0.0
36080 H 76.823 43.76 36.995 H 0.0 **** 0.0
36081 C 63.684 53.775 50.092 C 0.0 **** 0.0
36082 H 63.676 53.217 51.028 H 0.0 **** 0.0
36083 H 64.52 53.44 49.477 H 0.0 **** 0.0
36084 H 63.793 54.839 50.304 H 0.0 **** 0.0
36085 H 62.749 53.604 49.559 H 0.0 **** 0.0
36086 C 80.88 7.042 78.138 C 0.0 **** 0.0
36087 H 80.838 6.933 77.054 H 0.0 **** 0.0
36088 H 79.887 6.877 78.557 H 0.0 **** 0.0
36089 H 81.218 8.048 78.389 H 0.0 **** 0.0
36090 H 81.575 6.312 78.55 H 0.0 **** 0.0
36091 C 72.763 3.354 88.648 C 0.0 **** 0.0
36092 H 72.826 2.488 87.99 H 0.0 **** 0.0
36093 H 72.301 3.061 89.591 H 0.0 **** 0.0
36094 H 72.16 4.128 88.173 H 0.0 **** 0.0
36095 H 73.765 3.74 88.838 H 0.0 **** 0.0
36096 C 97.897 74.953 92.048 C 0.0 **** 0.0
36097 H 96.849 75.136 91.81 H 0.0 **** 0.0
36098 H 98.261 75.737 92.712 H 0.0 **** 0.0
36099 H 98.483 74.953 91.129 H 0.0 **** 0.0
36100 H 97.993 73.985 92.54 H 0.0 **** 0.0
36101 C 24.913 39.467 22.208 C 0.0 **** 0.0
36102 H 25.181 39.232 21.178 H 0.0 **** 0.0
36103 H 23.914 39.902 22.232 H 0.0 **** 0.0
36104 H 25.63 40.18 22.616 H 0.0 **** 0.0
36105 H 24.928 38.555 22.804 H 0.0 **** 0.0
36106 C 69.736 66.86 5.866 C 0.0 **** 0.0
36107 H 69.898 66.903 4.789 H 0.0 **** 0.0
36108 H 70.685 67.01 6.381 H 0.0 **** 0.0
36109 H 69.327 65.886 6.134 H 0.0 **** 0.0
36110 H 69.036 67.642 6.16 H 0.0 **** 0.0
36111 C 79.678 53.841 48.038 C 0.0 **** 0.0
36112 H 80.226 53.348 48.841 H 0.0 **** 0.0
36113 H 78.609 53.677 48.174 H 0.0 **** 0.0
36114 H 79.991 53.428 47.079 H 0.0 **** 0.0
36115 H 79.888 54.911 48.059 H 0.0 **** 0.0
36116 C 17.353 32.041 28.249 C 0.0 **** 0.0
36117 H 17.407 31.967 29.335 H 0.0 **** 0.0
36118 H 16.46 31.526 27.893 H 0.0 **** 0.0
36119 H 18.238 31.581 27.809 H 0.0 **** 0.0
36120 H 17.307 33.091 27.959 H 0.0 **** 0.0
36121 C 19.346 3.749 14.833 C 0.0 **** 0.0
36122 H 19.422 3.698 15.919 H 0.0 **** 0.0
36123 H 20.34 3.88 14.405 H 0.0 **** 0.0
36124 H 18.715 4.593 14.552 H 0.0 **** 0.0
36125 H 18.906 2.826 14.457 H 0.0 **** 0.0
36126 C 1.241 97.074 20.227 C 0.0 **** 0.0
36127 H 2.158 97.272 20.781 H 0.0 **** 0.0
36128 H 0.79 96.15 20.588 H 0.0 **** 0.0
36129 H 1.472 96.976 19.166 H 0.0 **** 0.0
36130 H 0.544 97.9 20.372 H 0.0 **** 0.0
36131 C 3.99 43.283 15.172 C 0.0 **** 0.0
36132 H 3.122 43.027 15.778 H 0.0 **** 0.0
36133 H 4.897 43.161 15.765 H 0.0 **** 0.0
36134 H 3.909 44.318 14.84 H 0.0 **** 0.0
36135 H 4.033 42.626 14.303 H 0.0 **** 0.0
36136 C 33.312 16.734 77.532 C 0.0 **** 0.0
36137 H 33.258 16.418 78.574 H 0.0 **** 0.0
36138 H 34.102 16.179 77.025 H 0.0 **** 0.0
36139 H 33.531 17.801 77.488 H 0.0 **** 0.0
36140 H 32.358 16.538 77.043 H 0.0 **** 0.0
36141 C 66.899 90.984 16.571 C 0.0 **** 0.0
36142 H 66.914 91.365 15.55 H 0.0 **** 0.0
36143 H 67.767 91.362 17.112 H 0.0 **** 0.0
36144 H 66.929 89.895 16.552 H 0.0 **** 0.0
36145 H 65.988 91.314 17.069 H 0.0 **** 0.0
36146 C 70.178 22.57 9.334 C 0.0 **** 0.0
36147 H 70.963 22.358 8.608 H 0.0 **** 0.0
36148 H 69.206 22.514 8.843 H 0.0 **** 0.0
36149 H 70.322 23.57 9.743 H 0.0 **** 0.0
36150 H 70.221 21.838 10.14 H 0.0 **** 0.0
36151 C 74.156 0.739 31.727 C 0.0 **** 0.0
36152 H 74.489 1.731 32.032 H 0.0 **** 0.0
36153 H 74.514 0.0 32.445 H 0.0 **** 0.0
36154 H 74.556 0.509 30.739 H 0.0 **** 0.0
36155 H 73.067 0.715 31.693 H 0.0 **** 0.0
36156 C 35.927 61.508 49.007 C 0.0 **** 0.0
36157 H 36.2 62.45 49.482 H 0.0 **** 0.0
36158 H 35.344 60.906 49.704 H 0.0 **** 0.0
36159 H 36.832 60.967 48.728 H 0.0 **** 0.0
36160 H 35.334 61.709 48.115 H 0.0 **** 0.0
36161 C 64.921 5.303 91.308 C 0.0 **** 0.0
36162 H 65.01 4.748 92.242 H 0.0 **** 0.0
36163 H 65.773 5.075 90.667 H 0.0 **** 0.0
36164 H 64.902 6.372 91.521 H 0.0 **** 0.0
36165 H 63.999 5.018 90.802 H 0.0 **** 0.0
36166 C 16.338 96.959 67.282 C 0.0 **** 0.0
36167 H 16.669 96.671 68.28 H 0.0 **** 0.0
36168 H 15.326 97.36 67.337 H 0.0 **** 0.0
36169 H 16.349 96.085 66.631 H 0.0 **** 0.0
36170 H 17.01 97.718 66.882 H 0.0 **** 0.0
36171 C 68.247 39.61 86.584 C 0.0 **** 0.0
36172 H 68.503 39.181 87.552 H 0.0 **** 0.0
36173 H 69.089 40.196 86.213 H 0.0 **** 0.0
36174 H 67.375 40.255 86.691 H 0.0 **** 0.0
36175 H 68.023 38.809 85.879 H 0.0 **** 0.0
36176 C 73.63 79.268 50.447 C 0.0 **** 0.0
36177 H 72.925 78.959 51.219 H 0.0 **** 0.0
36178 H 73.58 80.349 50.32 H 0.0 **** 0.0
36179 H 73.376 78.778 49.507 H 0.0 **** 0.0
36180 H 74.64 78.983 50.744 H 0.0 **** 0.0
36181 C 8.174 13.486 39.991 C 0.0 **** 0.0
36182 H 8.365 13.06 39.006 H 0.0 **** 0.0
36183 H 7.622 12.767 40.596 H 0.0 **** 0.0
36184 H 7.587 14.398 39.884 H 0.0 **** 0.0
36185 H 9.122 13.719 40.476 H 0.0 **** 0.0
36186 C 49.846 71.304 62.891 C 0.0 **** 0.0
36187 H 50.859 71.64 63.114 H 0.0 **** 0.0
36188 H 49.882 70.305 62.455 H 0.0 **** 0.0
36189 H 49.382 71.992 62.185 H 0.0 **** 0.0
36190 H 49.262 71.278 63.811 H 0.0 **** 0.0
36191 C 34.502 78.402 84.363 C 0.0 **** 0.0
36192 H 34.154 79.298 84.878 H 0.0 **** 0.0
36193 H 33.716 78.034 83.703 H 0.0 **** 0.0
36194 H 34.751 77.635 85.096 H 0.0 **** 0.0
36195 H 35.387 78.643 83.774 H 0.0 **** 0.0
36196 C 80.389 16.086 75.995 C 0.0 **** 0.0
36197 H 80.575 17.128 76.253 H 0.0 **** 0.0
36198 H 79.843 16.038 75.053 H 0.0 **** 0.0
36199 H 79.8 15.616 76.782 H 0.0 **** 0.0
36200 H 81.34 15.563 75.891 H 0.0 **** 0.0
36201 C 72.449 55.035 84.724 C 0.0 **** 0.0
36202 H 72.529 54.408 83.836 H 0.0 **** 0.0
36203 H 71.878 54.51 85.489 H 0.0 **** 0.0
36204 H 71.943 55.965 84.466 H 0.0 **** 0.0
36205 H 73.447 55.257 85.102 H 0.0 **** 0.0
36206 C 13.841 35.822 15.193 C 0.0 **** 0.0
36207 H 13.028 36.531 15.033 H 0.0 **** 0.0
36208 H 14.755 36.366 15.431 H 0.0 **** 0.0
36209 H 13.992 35.234 14.287 H 0.0 **** 0.0
36210 H 13.586 35.158 16.019 H 0.0 **** 0.0
36211 C 15.509 78.184 17.715 C 0.0 **** 0.0
36212 H 15.828 78.089 18.753 H 0.0 **** 0.0
36213 H 14.434 78.363 17.68 H 0.0 **** 0.0
36214 H 15.742 77.264 17.178 H 0.0 **** 0.0
36215 H 16.032 79.019 17.249 H 0.0 **** 0.0
36216 C 73.205 51.001 37.065 C 0.0 **** 0.0
36217 H 73.248 50.903 35.981 H 0.0 **** 0.0
36218 H 72.163 51.025 37.386 H 0.0 **** 0.0
36219 H 73.699 51.925 37.366 H 0.0 **** 0.0
36220 H 73.709 50.152 37.528 H 0.0 **** 0.0
36221 C 38.509 85.218 22.309 C 0.0 **** 0.0
36222 H 38.863 84.19 22.233 H 0.0 **** 0.0
36223 H 37.685 85.37 21.611 H 0.0 **** 0.0
36224 H 39.322 85.901 22.065 H 0.0 **** 0.0
36225 H 38.165 85.409 23.325 H 0.0 **** 0.0
36226 C 7.029 33.95 53.978 C 0.0 **** 0.0
36227 H 7.067 33.289 54.844 H 0.0 **** 0.0
36228 H 7.843 33.701 53.296 H 0.0 **** 0.0
36229 H 7.133 34.984 54.306 H 0.0 **** 0.0
36230 H 6.075 33.824 53.467 H 0.0 **** 0.0
36231 C 54.37 49.502 5.758 C 0.0 **** 0.0
36232 H 54.367 49.503 4.668 H 0.0 **** 0.0
36233 H 54.777 50.446 6.12 H 0.0 **** 0.0
36234 H 54.985 48.678 6.119 H 0.0 **** 0.0
36235 H 53.35 49.381 6.123 H 0.0 **** 0.0
36236 C 53.779 37.53 28.265 C 0.0 **** 0.0
36237 H 54.848 37.408 28.091 H 0.0 **** 0.0
36238 H 53.271 36.584 28.077 H 0.0 **** 0.0
36239 H 53.386 38.293 27.593 H 0.0 **** 0.0
36240 H 53.612 37.834 29.298 H 0.0 **** 0.0
36241 C 20.892 3.073 79.101 C 0.0 **** 0.0
36242 H 21.765 2.741 79.663 H 0.0 **** 0.0
36243 H 20.141 3.458 79.792 H 0.0 **** 0.0
36244 H 20.478 2.232 78.545 H 0.0 **** 0.0
36245 H 21.185 3.86 78.406 H 0.0 **** 0.0
36246 C 83.439 77.074 74.961 C 0.0 **** 0.0
36247 H 82.94 76.105 74.95 H 0.0 **** 0.0
36248 H 82.858 77.789 74.378 H 0.0 **** 0.0
36249 H 84.434 76.975 74.528 H 0.0 **** 0.0
36250 H 83.524 77.427 75.989 H 0.0 **** 0.0
36251 C 6.632 13.876 93.38 C 0.0 **** 0.0
36252 H 6.598 13.884 92.29 H 0.0 **** 0.0
36253 H 5.955 13.11 93.758 H 0.0 **** 0.0
36254 H 6.326 14.851 93.759 H 0.0 **** 0.0
36255 H 7.647 13.659 93.71 H 0.0 **** 0.0
36256 C 20.88 68.568 77.941 C 0.0 **** 0.0
36257 H 20.231 68.388 77.084 H 0.0 **** 0.0
36258 H 21.239 69.597 77.915 H 0.0 **** 0.0
36259 H 21.73 67.886 77.902 H 0.0 **** 0.0
36260 H 20.322 68.4 78.862 H 0.0 **** 0.0
36261 C 54.051 33.977 42.746 C 0.0 **** 0.0
36262 H 53.176 34.623 42.803 H 0.0 **** 0.0
36263 H 54.136 33.397 43.665 H 0.0 **** 0.0
36264 H 54.945 34.587 42.617 H 0.0 **** 0.0
36265 H 53.948 33.3 41.897 H 0.0 **** 0.0
36266 C 59.013 14.244 30.009 C 0.0 **** 0.0
36267 H 58.807 13.547 30.822 H 0.0 **** 0.0
36268 H 59.908 13.926 29.475 H 0.0 **** 0.0
36269 H 59.169 15.242 30.418 H 0.0 **** 0.0
36270 H 58.166 14.261 29.322 H 0.0 **** 0.0
36271 C 50.833 31.268 48.939 C 0.0 **** 0.0
36272 H 50.028 31.911 48.585 H 0.0 **** 0.0
36273 H 50.498 30.717 49.818 H 0.0 **** 0.0
36274 H 51.697 31.879 49.201 H 0.0 **** 0.0
36275 H 51.109 30.566 48.153 H 0.0 **** 0.0
36276 C 8.72 42.881 11.329 C 0.0 **** 0.0
36277 H 7.804 43.467 11.239 H 0.0 **** 0.0
36278 H 9.464 43.454 11.882 H 0.0 **** 0.0
36279 H 9.102 42.652 10.334 H 0.0 **** 0.0
36280 H 8.507 41.953 11.86 H 0.0 **** 0.0
36281 C 16.255 84.004 14.58 C 0.0 **** 0.0
36282 H 16.82 84.506 15.366 H 0.0 **** 0.0
36283 H 16.517 84.436 13.614 H 0.0 **** 0.0
36284 H 15.188 84.133 14.76 H 0.0 **** 0.0
36285 H 16.498 82.941 14.582 H 0.0 **** 0.0
36286 C 17.54 64.875 4.816 C 0.0 **** 0.0
36287 H 17.654 64.96 3.735 H 0.0 **** 0.0
36288 H 16.506 64.624 5.053 H 0.0 **** 0.0
36289 H 17.801 65.824 5.284 H 0.0 **** 0.0
36290 H 18.199 64.092 5.19 H 0.0 **** 0.0
36291 C 78.22 45.942 66.353 C 0.0 **** 0.0
36292 H 78.891 46.078 65.505 H 0.0 **** 0.0
36293 H 78.778 46.062 67.281 H 0.0 **** 0.0
36294 H 77.786 44.942 66.315 H 0.0 **** 0.0
36295 H 77.423 46.685 66.308 H 0.0 **** 0.0
36296 C 48.669 81.235 10.258 C 0.0 **** 0.0
36297 H 48.95 82.126 10.82 H 0.0 **** 0.0
36298 H 47.828 81.469 9.604 H 0.0 **** 0.0
36299 H 48.383 80.443 10.95 H 0.0 **** 0.0
36300 H 49.516 80.904 9.657 H 0.0 **** 0.0
36301 C 62.867 47.38 57.345 C 0.0 **** 0.0
36302 H 62.611 47.095 56.325 H 0.0 **** 0.0
36303 H 63.685 46.754 57.703 H 0.0 **** 0.0
36304 H 61.998 47.246 57.99 H 0.0 **** 0.0
36305 H 63.174 48.426 57.364 H 0.0 **** 0.0
36306 C 35.993 98.021 49.032 C 0.0 **** 0.0
36307 H 36.06 97.606 50.038 H 0.0 **** 0.0
36308 H 34.955 98.271 48.811 H 0.0 **** 0.0
36309 H 36.351 97.286 48.311 H 0.0 **** 0.0
36310 H 36.605 98.92 48.969 H 0.0 **** 0.0
36311 C 70.592 32.227 87.28 C 0.0 **** 0.0
36312 H 70.755 31.553 86.438 H 0.0 **** 0.0
36313 H 71.258 31.953 88.098 H 0.0 **** 0.0
36314 H 69.557 32.149 87.612 H 0.0 **** 0.0
36315 H 70.798 33.251 86.97 H 0.0 **** 0.0
36316 C 42.799 73.907 71.328 C 0.0 **** 0.0
36317 H 42.871 74.254 72.359 H 0.0 **** 0.0
36318 H 41.963 73.213 71.236 H 0.0 **** 0.0
36319 H 43.724 73.401 71.051 H 0.0 **** 0.0
36320 H 42.638 74.759 70.668 H 0.0 **** 0.0
36321 C 15.486 46.908 37.548 C 0.0 **** 0.0
36322 H 15.054 46.984 38.546 H 0.0 **** 0.0
36323 H 16.573 46.964 37.618 H 0.0 **** 0.0
36324 H 15.119 47.727 36.93 H 0.0 **** 0.0
36325 H 15.199 45.957 37.1 H 0.0 **** 0.0
36326 C 74.517 22.498 78.396 C 0.0 **** 0.0
36327 H 75.164 23.0 79.115 H 0.0 **** 0.0
36328 H 75.125 21.895 77.721 H 0.0 **** 0.0
36329 H 73.966 23.243 77.822 H 0.0 **** 0.0
36330 H 73.815 21.855 78.926 H 0.0 **** 0.0
36331 C 59.682 59.756 50.405 C 0.0 **** 0.0
36332 H 59.567 59.181 49.486 H 0.0 **** 0.0
36333 H 59.998 59.092 51.21 H 0.0 **** 0.0
36334 H 58.73 60.218 50.666 H 0.0 **** 0.0
36335 H 60.434 60.531 50.257 H 0.0 **** 0.0
36336 C 51.902 87.949 91.961 C 0.0 **** 0.0
36337 H 52.25 87.577 92.925 H 0.0 **** 0.0
36338 H 52.759 88.149 91.318 H 0.0 **** 0.0
36339 H 51.337 88.87 92.11 H 0.0 **** 0.0
36340 H 51.261 87.202 91.493 H 0.0 **** 0.0
36341 C 83.318 17.918 21.893 C 0.0 **** 0.0
36342 H 84.011 18.344 21.168 H 0.0 **** 0.0
36343 H 83.862 17.645 22.798 H 0.0 **** 0.0
36344 H 82.848 17.031 21.469 H 0.0 **** 0.0
36345 H 82.551 18.654 22.138 H 0.0 **** 0.0
36346 C 26.035 92.112 91.384 C 0.0 **** 0.0
36347 H 26.064 92.631 90.426 H 0.0 **** 0.0
36348 H 25.399 91.231 91.301 H 0.0 **** 0.0
36349 H 25.634 92.78 92.146 H 0.0 **** 0.0
36350 H 27.044 91.807 91.663 H 0.0 **** 0.0
36351 C 78.235 43.692 0.966 C 0.0 **** 0.0
36352 H 77.592 42.852 0.706 H 0.0 **** 0.0
36353 H 79.277 43.373 0.943 H 0.0 **** 0.0
36354 H 77.984 44.045 1.967 H 0.0 **** 0.0
36355 H 78.086 44.499 0.248 H 0.0 **** 0.0
36356 C 60.199 62.853 60.273 C 0.0 **** 0.0
36357 H 60.989 62.105 60.203 H 0.0 **** 0.0
36358 H 59.629 62.867 59.344 H 0.0 **** 0.0
36359 H 60.643 63.834 60.443 H 0.0 **** 0.0
36360 H 59.537 62.605 61.103 H 0.0 **** 0.0
36361 C 60.671 82.33 41.036 C 0.0 **** 0.0
36362 H 60.848 82.726 42.036 H 0.0 **** 0.0
36363 H 59.598 82.281 40.85 H 0.0 **** 0.0
36364 H 61.099 81.33 40.96 H 0.0 **** 0.0
36365 H 61.139 82.982 40.299 H 0.0 **** 0.0
36366 C 92.671 73.543 46.343 C 0.0 **** 0.0
36367 H 91.805 73.961 46.855 H 0.0 **** 0.0
36368 H 93.029 72.669 46.889 H 0.0 **** 0.0
36369 H 93.462 74.291 46.296 H 0.0 **** 0.0
36370 H 92.388 73.249 45.332 H 0.0 **** 0.0
36371 C 31.787 38.664 73.396 C 0.0 **** 0.0
36372 H 31.753 38.331 74.433 H 0.0 **** 0.0
36373 H 32.522 38.073 72.848 H 0.0 **** 0.0
36374 H 32.069 39.717 73.363 H 0.0 **** 0.0
36375 H 30.805 38.537 72.941 H 0.0 **** 0.0
36376 C 38.734 80.619 3.876 C 0.0 **** 0.0
36377 H 39.615 81.052 3.403 H 0.0 **** 0.0
36378 H 39.044 79.871 4.606 H 0.0 **** 0.0
36379 H 38.109 80.149 3.117 H 0.0 **** 0.0
36380 H 38.168 81.404 4.378 H 0.0 **** 0.0
36381 C 81.553 10.889 11.211 C 0.0 **** 0.0
36382 H 81.833 11.621 11.968 H 0.0 **** 0.0
36383 H 82.452 10.421 10.808 H 0.0 **** 0.0
36384 H 81.01 11.387 10.407 H 0.0 **** 0.0
36385 H 80.917 10.127 11.661 H 0.0 **** 0.0
36386 C 30.516 7.553 76.986 C 0.0 **** 0.0
36387 H 30.206 7.909 77.968 H 0.0 **** 0.0
36388 H 31.478 7.046 77.071 H 0.0 **** 0.0
36389 H 30.611 8.399 76.305 H 0.0 **** 0.0
36390 H 29.771 6.857 76.6 H 0.0 **** 0.0
36391 C 12.371 19.922 38.858 C 0.0 **** 0.0
36392 H 13.447 19.97 39.025 H 0.0 **** 0.0
36393 H 12.047 20.817 38.325 H 0.0 **** 0.0
36394 H 11.857 19.864 39.817 H 0.0 **** 0.0
36395 H 12.135 19.039 38.264 H 0.0 **** 0.0
36396 C 93.047 28.57 91.795 C 0.0 **** 0.0
36397 H 92.998 28.632 90.707 H 0.0 **** 0.0
36398 H 93.024 27.524 92.1 H 0.0 **** 0.0
36399 H 92.194 29.094 92.227 H 0.0 **** 0.0
36400 H 93.971 29.03 92.144 H 0.0 **** 0.0
36401 C 92.99 52.03 68.704 C 0.0 **** 0.0
36402 H 92.577 52.429 69.63 H 0.0 **** 0.0
36403 H 93.972 51.597 68.901 H 0.0 **** 0.0
36404 H 93.087 52.833 67.973 H 0.0 **** 0.0
36405 H 92.326 51.26 68.312 H 0.0 **** 0.0
36406 C 95.687 70.853 90.858 C 0.0 **** 0.0
36407 H 94.957 70.616 91.632 H 0.0 **** 0.0
36408 H 95.735 70.033 90.142 H 0.0 **** 0.0
36409 H 96.666 70.997 91.315 H 0.0 **** 0.0
36410 H 95.388 71.767 90.345 H 0.0 **** 0.0
36411 C 24.275 74.884 95.98 C 0.0 **** 0.0
36412 H 24.398 74.861 94.897 H 0.0 **** 0.0
36413 H 25.158 75.333 96.435 H 0.0 **** 0.0
36414 H 24.15 73.868 96.352 H 0.0 **** 0.0
36415 H 23.395 75.475 96.233 H 0.0 **** 0.0
36416 C 11.067 3.111 67.406 C 0.0 **** 0.0
36417 H 10.134 2.777 67.858 H 0.0 **** 0.0
36418 H 11.298 2.484 66.545 H 0.0 **** 0.0
36419 H 11.872 3.035 68.137 H 0.0 **** 0.0
36420 H 10.965 4.147 67.084 H 0.0 **** 0.0
36421 C 14.287 79.582 36.916 C 0.0 **** 0.0
36422 H 14.503 79.582 37.984 H 0.0 **** 0.0
36423 H 14.928 80.309 36.415 H 0.0 **** 0.0
36424 H 13.242 79.849 36.757 H 0.0 **** 0.0
36425 H 14.475 78.589 36.507 H 0.0 **** 0.0
36426 C 32.113 25.666 65.35 C 0.0 **** 0.0
36427 H 32.538 24.879 65.974 H 0.0 **** 0.0
36428 H 31.033 25.698 65.494 H 0.0 **** 0.0
36429 H 32.335 25.459 64.303 H 0.0 **** 0.0
36430 H 32.546 26.625 65.631 H 0.0 **** 0.0
36431 C 35.033 69.365 97.926 C 0.0 **** 0.0
36432 H 34.702 69.656 96.929 H 0.0 **** 0.0
36433 H 35.858 68.657 97.842 H 0.0 **** 0.0
36434 H 34.206 68.898 98.461 H 0.0 **** 0.0
36435 H 35.366 70.248 98.471 H 0.0 **** 0.0
36436 C 82.087 81.535 14.836 C 0.0 **** 0.0
36437 H 81.564 81.962 13.98 H 0.0 **** 0.0
36438 H 82.659 82.316 15.337 H 0.0 **** 0.0
36439 H 82.763 80.751 14.494 H 0.0 **** 0.0
36440 H 81.361 81.112 15.531 H 0.0 **** 0.0
36441 C 73.809 43.712 59.771 C 0.0 **** 0.0
36442 H 74.325 44.558 60.226 H 0.0 **** 0.0
36443 H 74.089 42.795 60.289 H 0.0 **** 0.0
36444 H 74.09 43.638 58.721 H 0.0 **** 0.0
36445 H 72.732 43.86 59.849 H 0.0 **** 0.0
36446 C 26.871 89.931 3.915 C 0.0 **** 0.0
36447 H 27.409 89.361 3.157 H 0.0 **** 0.0
36448 H 26.895 90.99 3.658 H 0.0 **** 0.0
36449 H 27.343 89.78 4.886 H 0.0 **** 0.0
36450 H 25.836 89.591 3.957 H 0.0 **** 0.0
36451 C 61.514 53.978 9.436 C 0.0 **** 0.0
36452 H 61.484 52.908 9.231 H 0.0 **** 0.0
36453 H 60.772 54.486 8.819 H 0.0 **** 0.0
36454 H 62.506 54.365 9.204 H 0.0 **** 0.0
36455 H 61.292 54.152 10.489 H 0.0 **** 0.0
36456 C 28.174 32.583 89.838 C 0.0 **** 0.0
36457 H 28.921 32.079 90.452 H 0.0 **** 0.0
36458 H 27.637 31.845 89.242 H 0.0 **** 0.0
36459 H 28.669 33.295 89.177 H 0.0 **** 0.0
36460 H 27.472 33.111 90.482 H 0.0 **** 0.0
36461 C 25.438 5.889 32.894 C 0.0 **** 0.0
36462 H 25.461 5.026 32.228 H 0.0 **** 0.0
36463 H 26.292 5.848 33.57 H 0.0 **** 0.0
36464 H 24.514 5.877 33.472 H 0.0 **** 0.0
36465 H 25.485 6.804 32.303 H 0.0 **** 0.0
36466 C 31.629 52.895 36.322 C 0.0 **** 0.0
36467 H 31.245 53.269 37.271 H 0.0 **** 0.0
36468 H 32.368 53.594 35.928 H 0.0 **** 0.0
36469 H 30.808 52.796 35.612 H 0.0 **** 0.0
36470 H 32.095 51.922 36.476 H 0.0 **** 0.0
36471 C 92.889 54.011 14.908 C 0.0 **** 0.0
36472 H 92.832 54.152 13.829 H 0.0 **** 0.0
36473 H 92.492 54.894 15.411 H 0.0 **** 0.0
36474 H 93.929 53.863 15.201 H 0.0 **** 0.0
36475 H 92.304 53.137 15.192 H 0.0 **** 0.0
36476 C 19.151 53.472 78.257 C 0.0 **** 0.0
36477 H 19.269 52.51 77.759 H 0.0 **** 0.0
36478 H 20.118 53.809 78.631 H 0.0 **** 0.0
36479 H 18.456 53.367 79.09 H 0.0 **** 0.0
36480 H 18.761 54.203 77.548 H 0.0 **** 0.0
36481 C 94.883 75.261 28.477 C 0.0 **** 0.0
36482 H 95.363 75.437 27.515 H 0.0 **** 0.0
36483 H 93.855 74.936 28.317 H 0.0 **** 0.0
36484 H 94.887 76.182 29.059 H 0.0 **** 0.0
36485 H 95.429 74.487 29.018 H 0.0 **** 0.0
36486 C 50.785 64.945 40.948 C 0.0 **** 0.0
36487 H 49.788 65.374 40.852 H 0.0 **** 0.0
36488 H 50.734 64.044 41.56 H 0.0 **** 0.0
36489 H 51.447 65.669 41.422 H 0.0 **** 0.0
36490 H 51.169 64.692 39.96 H 0.0 **** 0.0
36491 C 40.288 80.156 87.566 C 0.0 **** 0.0
36492 H 40.049 81.138 87.974 H 0.0 **** 0.0
36493 H 40.992 79.649 88.227 H 0.0 **** 0.0
36494 H 40.734 80.271 86.579 H 0.0 **** 0.0
36495 H 39.375 79.565 87.486 H 0.0 **** 0.0
36496 C 17.023 6.814 45.877 C 0.0 **** 0.0
36497 H 17.039 6.792 46.967 H 0.0 **** 0.0
36498 H 16.027 6.545 45.524 H 0.0 **** 0.0
36499 H 17.751 6.102 45.489 H 0.0 **** 0.0
36500 H 17.273 7.816 45.53 H 0.0 **** 0.0
36501 C 69.447 92.817 96.277 C 0.0 **** 0.0
36502 H 69.889 92.262 95.45 H 0.0 **** 0.0
36503 H 70.206 93.001 97.037 H 0.0 **** 0.0
36504 H 68.632 92.237 96.709 H 0.0 **** 0.0
36505 H 69.061 93.769 95.911 H 0.0 **** 0.0
36506 C 60.782 61.579 81.077 C 0.0 **** 0.0
36507 H 60.54 60.675 80.518 H 0.0 **** 0.0
36508 H 61.553 61.355 81.814 H 0.0 **** 0.0
36509 H 59.888 61.941 81.585 H 0.0 **** 0.0
36510 H 61.145 62.344 80.391 H 0.0 **** 0.0
36511 C 55.117 6.102 85.768 C 0.0 **** 0.0
36512 H 55.682 6.979 86.085 H 0.0 **** 0.0
36513 H 54.095 6.395 85.53 H 0.0 **** 0.0
36514 H 55.106 5.367 86.573 H 0.0 **** 0.0
36515 H 55.586 5.667 84.886 H 0.0 **** 0.0
36516 C 59.466 10.08 20.583 C 0.0 **** 0.0
36517 H 59.527 9.849 21.647 H 0.0 **** 0.0
36518 H 59.653 9.176 20.004 H 0.0 **** 0.0
36519 H 60.212 10.834 20.333 H 0.0 **** 0.0
36520 H 58.472 10.462 20.351 H 0.0 **** 0.0
36521 C 32.958 84.766 68.854 C 0.0 **** 0.0
36522 H 33.972 84.859 69.242 H 0.0 **** 0.0
36523 H 32.968 84.143 67.959 H 0.0 **** 0.0
36524 H 32.573 85.754 68.604 H 0.0 **** 0.0
36525 H 32.321 84.307 69.61 H 0.0 **** 0.0
36526 C 21.523 4.611 36.243 C 0.0 **** 0.0
36527 H 22.344 4.982 35.63 H 0.0 **** 0.0
36528 H 21.03 3.787 35.728 H 0.0 **** 0.0
36529 H 20.807 5.414 36.415 H 0.0 **** 0.0
36530 H 21.913 4.262 37.199 H 0.0 **** 0.0
36531 C 4.629 87.956 13.711 C 0.0 **** 0.0
36532 H 4.397 87.573 14.705 H 0.0 **** 0.0
36533 H 3.883 87.597 13.001 H 0.0 **** 0.0
36534 H 5.616 87.607 13.409 H 0.0 **** 0.0
36535 H 4.618 89.045 13.73 H 0.0 **** 0.0
36536 C 30.756 71.322 59.933 C 0.0 **** 0.0
36537 H 30.833 70.387 60.488 H 0.0 **** 0.0
36538 H 30.652 71.106 58.87 H 0.0 **** 0.0
36539 H 31.655 71.916 60.097 H 0.0 **** 0.0
36540 H 29.885 71.878 60.279 H 0.0 **** 0.0
36541 C 30.466 78.288 80.834 C 0.0 **** 0.0
36542 H 30.602 78.814 79.89 H 0.0 **** 0.0
36543 H 29.914 77.364 80.659 H 0.0 **** 0.0
36544 H 29.908 78.92 81.525 H 0.0 **** 0.0
36545 H 31.44 78.053 81.263 H 0.0 **** 0.0
36546 C 82.177 54.575 75.661 C 0.0 **** 0.0
36547 H 82.553 53.772 75.027 H 0.0 **** 0.0
36548 H 82.436 55.538 75.219 H 0.0 **** 0.0
36549 H 82.625 54.497 76.651 H 0.0 **** 0.0
36550 H 81.093 54.494 75.745 H 0.0 **** 0.0
36551 C 80.001 91.58 61.126 C 0.0 **** 0.0
36552 H 79.007 91.253 61.432 H 0.0 **** 0.0
36553 H 80.02 92.668 61.055 H 0.0 **** 0.0
36554 H 80.242 91.148 60.155 H 0.0 **** 0.0
36555 H 80.734 91.251 61.862 H 0.0 **** 0.0
36556 C 76.423 19.963 17.3 C 0.0 **** 0.0
36557 H 77.172 19.173 17.251 H 0.0 **** 0.0
36558 H 76.155 20.272 16.289 H 0.0 **** 0.0
36559 H 76.829 20.815 17.845 H 0.0 **** 0.0
36560 H 75.537 19.592 17.814 H 0.0 **** 0.0
36561 C 96.484 38.299 12.897 C 0.0 **** 0.0
36562 H 95.48 38.717 12.83 H 0.0 **** 0.0
36563 H 96.848 38.066 11.896 H 0.0 **** 0.0
36564 H 96.459 37.388 13.495 H 0.0 **** 0.0
36565 H 97.148 39.024 13.367 H 0.0 **** 0.0
36566 C 11.73 90.935 53.519 C 0.0 **** 0.0
36567 H 12.043 91.591 54.331 H 0.0 **** 0.0
36568 H 11.817 89.896 53.838 H 0.0 **** 0.0
36569 H 12.365 91.104 52.65 H 0.0 **** 0.0
36570 H 10.693 91.15 53.258 H 0.0 **** 0.0
36571 C 48.763 86.705 91.695 C 0.0 **** 0.0
36572 H 47.801 86.334 92.051 H 0.0 **** 0.0
36573 H 49.253 87.266 92.492 H 0.0 **** 0.0
36574 H 48.605 87.356 90.835 H 0.0 **** 0.0
36575 H 49.391 85.863 91.404 H 0.0 **** 0.0
36576 C 82.822 80.04 0.79 C 0.0 **** 0.0
36577 H 82.443 79.392 0.0 H 0.0 **** 0.0
36578 H 83.196 80.966 0.352 H 0.0 **** 0.0
36579 H 83.631 79.534 1.317 H 0.0 **** 0.0
36580 H 82.018 80.268 1.49 H 0.0 **** 0.0
36581 C 4.157 33.967 72.004 C 0.0 **** 0.0
36582 H 3.646 34.893 72.268 H 0.0 **** 0.0
36583 H 3.43 33.243 71.638 H 0.0 **** 0.0
36584 H 4.659 33.566 72.884 H 0.0 **** 0.0
36585 H 4.894 34.168 71.226 H 0.0 **** 0.0
36586 C 44.149 28.843 26.034 C 0.0 **** 0.0
36587 H 43.374 29.0 25.284 H 0.0 **** 0.0
36588 H 44.28 27.774 26.202 H 0.0 **** 0.0
36589 H 43.855 29.325 26.966 H 0.0 **** 0.0
36590 H 45.087 29.273 25.682 H 0.0 **** 0.0
36591 C 33.254 62.695 58.807 C 0.0 **** 0.0
36592 H 34.01 62.624 59.589 H 0.0 **** 0.0
36593 H 32.837 61.706 58.614 H 0.0 **** 0.0
36594 H 33.708 63.083 57.896 H 0.0 **** 0.0
36595 H 32.459 63.367 59.132 H 0.0 **** 0.0
36596 C 34.544 48.564 82.351 C 0.0 **** 0.0
36597 H 34.193 48.636 83.381 H 0.0 **** 0.0
36598 H 34.043 47.733 81.854 H 0.0 **** 0.0
36599 H 35.621 48.396 82.345 H 0.0 **** 0.0
36600 H 34.318 49.492 81.825 H 0.0 **** 0.0
36601 C 11.056 76.837 89.643 C 0.0 **** 0.0
36602 H 11.264 75.782 89.824 H 0.0 **** 0.0
36603 H 10.017 77.05 89.894 H 0.0 **** 0.0
36604 H 11.23 77.066 88.592 H 0.0 **** 0.0
36605 H 11.713 77.448 90.262 H 0.0 **** 0.0
36606 C 4.556 31.25 87.247 C 0.0 **** 0.0
36607 H 5.141 30.379 86.95 H 0.0 **** 0.0
36608 H 4.595 31.362 88.33 H 0.0 **** 0.0
36609 H 3.521 31.116 86.932 H 0.0 **** 0.0
36610 H 4.967 32.141 86.774 H 0.0 **** 0.0
36611 C 11.09 13.451 46.099 C 0.0 **** 0.0
36612 H 10.654 13.898 46.992 H 0.0 **** 0.0
36613 H 10.834 12.391 46.062 H 0.0 **** 0.0
36614 H 12.173 13.562 46.129 H 0.0 **** 0.0
36615 H 10.697 13.951 45.214 H 0.0 **** 0.0
36616 C 85.45 46.242 29.261 C 0.0 **** 0.0
36617 H 84.419 46.025 29.542 H 0.0 **** 0.0
36618 H 85.563 47.313 29.096 H 0.0 **** 0.0
36619 H 85.697 45.704 28.345 H 0.0 **** 0.0
36620 H 86.118 45.924 30.061 H 0.0 **** 0.0
36621 C 84.448 78.886 32.982 C 0.0 **** 0.0
36622 H 85.059 78.327 33.691 H 0.0 **** 0.0
36623 H 83.399 78.619 33.117 H 0.0 **** 0.0
36624 H 84.757 78.642 31.966 H 0.0 **** 0.0
36625 H 84.577 79.954 33.155 H 0.0 **** 0.0
36626 C 66.785 69.854 58.781 C 0.0 **** 0.0
36627 H 66.697 69.171 59.626 H 0.0 **** 0.0
36628 H 67.829 70.142 58.655 H 0.0 **** 0.0
36629 H 66.182 70.742 58.968 H 0.0 **** 0.0
36630 H 66.433 69.359 57.876 H 0.0 **** 0.0
36631 C 18.443 14.903 36.403 C 0.0 **** 0.0
36632 H 19.398 15.381 36.184 H 0.0 **** 0.0
36633 H 18.548 13.822 36.305 H 0.0 **** 0.0
36634 H 17.688 15.261 35.703 H 0.0 **** 0.0
36635 H 18.139 15.148 37.421 H 0.0 **** 0.0
36636 C 88.1 65.476 73.302 C 0.0 **** 0.0
36637 H 87.397 66.302 73.197 H 0.0 **** 0.0
36638 H 87.644 64.561 72.922 H 0.0 **** 0.0
36639 H 88.353 65.346 74.354 H 0.0 **** 0.0
36640 H 89.004 65.694 72.734 H 0.0 **** 0.0
36641 C 15.716 90.472 52.732 C 0.0 **** 0.0
36642 H 15.687 90.564 51.646 H 0.0 **** 0.0
36643 H 15.48 89.446 53.016 H 0.0 **** 0.0
36644 H 14.985 91.149 53.173 H 0.0 **** 0.0
36645 H 16.713 90.728 53.091 H 0.0 **** 0.0
36646 C 19.952 8.044 46.072 C 0.0 **** 0.0
36647 H 19.551 8.211 45.072 H 0.0 **** 0.0
36648 H 20.941 7.591 45.995 H 0.0 **** 0.0
36649 H 19.289 7.377 46.622 H 0.0 **** 0.0
36650 H 20.028 8.996 46.597 H 0.0 **** 0.0
36651 C 27.947 35.904 33.631 C 0.0 **** 0.0
36652 H 27.261 35.772 34.468 H 0.0 **** 0.0
36653 H 28.617 36.738 33.84 H 0.0 **** 0.0
36654 H 27.378 36.111 32.725 H 0.0 **** 0.0
36655 H 28.531 34.994 33.494 H 0.0 **** 0.0
36656 C 40.268 36.876 73.038 C 0.0 **** 0.0
36657 H 40.888 37.666 72.615 H 0.0 **** 0.0
36658 H 39.573 37.306 73.759 H 0.0 **** 0.0
36659 H 40.904 36.144 73.537 H 0.0 **** 0.0
36660 H 39.709 36.387 72.24 H 0.0 **** 0.0
36661 C 67.734 89.577 49.957 C 0.0 **** 0.0
36662 H 68.357 90.051 50.714 H 0.0 **** 0.0
36663 H 68.053 89.904 48.967 H 0.0 **** 0.0
36664 H 66.693 89.858 50.115 H 0.0 **** 0.0
36665 H 67.832 88.494 50.031 H 0.0 **** 0.0
36666 C 1.42 58.063 78.176 C 0.0 **** 0.0
36667 H 1.595 57.851 79.231 H 0.0 **** 0.0
36668 H 0.377 58.348 78.032 H 0.0 **** 0.0
36669 H 1.639 57.174 77.586 H 0.0 **** 0.0
36670 H 2.067 58.88 77.857 H 0.0 **** 0.0
36671 C 93.278 12.561 95.382 C 0.0 **** 0.0
36672 H 92.984 12.412 96.421 H 0.0 **** 0.0
36673 H 93.188 11.62 94.841 H 0.0 **** 0.0
36674 H 94.312 12.906 95.344 H 0.0 **** 0.0
36675 H 92.629 13.308 94.925 H 0.0 **** 0.0
36676 C 3.951 85.165 92.051 C 0.0 **** 0.0
36677 H 4.27 84.274 92.592 H 0.0 **** 0.0
36678 H 4.176 86.051 92.645 H 0.0 **** 0.0
36679 H 2.878 85.113 91.866 H 0.0 **** 0.0
36680 H 4.481 85.221 91.1 H 0.0 **** 0.0
36681 C 94.554 2.325 46.881 C 0.0 **** 0.0
36682 H 94.807 1.889 47.847 H 0.0 **** 0.0
36683 H 95.393 2.2 46.196 H 0.0 **** 0.0
36684 H 94.342 3.386 47.006 H 0.0 **** 0.0
36685 H 93.675 1.823 46.475 H 0.0 **** 0.0
36686 C 85.741 74.58 54.416 C 0.0 **** 0.0
36687 H 85.646 73.773 55.142 H 0.0 **** 0.0
36688 H 84.818 74.664 53.843 H 0.0 **** 0.0
36689 H 86.57 74.365 53.741 H 0.0 **** 0.0
36690 H 85.932 75.518 54.938 H 0.0 **** 0.0
36691 C 78.267 63.676 68.757 C 0.0 **** 0.0
36692 H 77.662 63.055 69.417 H 0.0 **** 0.0
36693 H 78.574 63.093 67.889 H 0.0 **** 0.0
36694 H 79.15 64.023 69.293 H 0.0 **** 0.0
36695 H 77.68 64.535 68.43 H 0.0 **** 0.0
36696 C 96.962 87.891 65.172 C 0.0 **** 0.0
36697 H 97.806 87.207 65.257 H 0.0 **** 0.0
36698 H 96.14 87.392 64.659 H 0.0 **** 0.0
36699 H 97.264 88.771 64.604 H 0.0 **** 0.0
36700 H 96.639 88.195 66.167 H 0.0 **** 0.0
36701 C 9.015 29.755 39.555 C 0.0 **** 0.0
36702 H 9.139 29.612 38.481 H 0.0 **** 0.0
36703 H 8.675 28.823 40.008 H 0.0 **** 0.0
36704 H 8.277 30.537 39.734 H 0.0 **** 0.0
36705 H 9.968 30.047 39.994 H 0.0 **** 0.0
36706 C 80.698 3.061 17.634 C 0.0 **** 0.0
36707 H 81.17 4.04 17.549 H 0.0 **** 0.0
36708 H 79.822 3.135 18.279 H 0.0 **** 0.0
36709 H 81.407 2.353 18.064 H 0.0 **** 0.0
36710 H 80.394 2.717 16.646 H 0.0 **** 0.0
36711 C 8.057 5.226 51.711 C 0.0 **** 0.0
36712 H 9.043 4.949 52.084 H 0.0 **** 0.0
36713 H 7.652 4.408 51.115 H 0.0 **** 0.0
36714 H 8.141 6.119 51.092 H 0.0 **** 0.0
36715 H 7.394 5.427 52.552 H 0.0 **** 0.0
36716 C 10.315 76.746 34.582 C 0.0 **** 0.0
36717 H 10.731 75.85 34.121 H 0.0 **** 0.0
36718 H 11.061 77.541 34.571 H 0.0 **** 0.0
36719 H 10.033 76.526 35.612 H 0.0 **** 0.0
36720 H 9.435 77.066 34.025 H 0.0 **** 0.0
36721 C 93.446 64.919 27.856 C 0.0 **** 0.0
36722 H 93.514 64.209 28.681 H 0.0 **** 0.0
36723 H 92.398 65.124 27.64 H 0.0 **** 0.0
36724 H 93.924 64.496 26.973 H 0.0 **** 0.0
36725 H 93.949 65.846 28.133 H 0.0 **** 0.0
36726 C 57.814 19.97 66.883 C 0.0 **** 0.0
36727 H 56.955 19.866 67.546 H 0.0 **** 0.0
36728 H 57.577 20.682 66.092 H 0.0 **** 0.0
36729 H 58.05 19.002 66.441 H 0.0 **** 0.0
36730 H 58.671 20.329 67.452 H 0.0 **** 0.0
36731 C 92.047 11.641 76.005 C 0.0 **** 0.0
36732 H 92.415 12.663 75.91 H 0.0 **** 0.0
36733 H 92.377 11.224 76.957 H 0.0 **** 0.0
36734 H 92.439 11.037 75.187 H 0.0 **** 0.0
36735 H 90.958 11.643 75.966 H 0.0 **** 0.0
36736 C 67.831 91.924 38.041 C 0.0 **** 0.0
36737 H 68.723 92.432 38.409 H 0.0 **** 0.0
36738 H 68.085 90.9 37.766 H 0.0 **** 0.0
36739 H 67.448 92.451 37.168 H 0.0 **** 0.0
36740 H 67.071 91.913 38.822 H 0.0 **** 0.0
36741 C 45.196 53.767 2.213 C 0.0 **** 0.0
36742 H 44.351 53.998 2.862 H 0.0 **** 0.0
36743 H 46.118 54.113 2.68 H 0.0 **** 0.0
36744 H 45.064 54.267 1.253 H 0.0 **** 0.0
36745 H 45.249 52.689 2.057 H 0.0 **** 0.0
36746 C 79.002 24.408 40.827 C 0.0 **** 0.0
36747 H 79.16 23.828 39.918 H 0.0 **** 0.0
36748 H 77.982 24.258 41.181 H 0.0 **** 0.0
36749 H 79.163 25.465 40.616 H 0.0 **** 0.0
36750 H 79.705 24.08 41.593 H 0.0 **** 0.0
36751 C 76.164 17.193 44.883 C 0.0 **** 0.0
36752 H 76.013 17.276 45.959 H 0.0 **** 0.0
36753 H 75.545 16.387 44.49 H 0.0 **** 0.0
36754 H 77.213 16.979 44.679 H 0.0 **** 0.0
36755 H 75.885 18.132 44.404 H 0.0 **** 0.0
36756 C 43.349 16.389 46.745 C 0.0 **** 0.0
36757 H 43.807 15.984 45.842 H 0.0 **** 0.0
36758 H 42.62 17.152 46.471 H 0.0 **** 0.0
36759 H 44.12 16.832 47.375 H 0.0 **** 0.0
36760 H 42.85 15.588 47.29 H 0.0 **** 0.0
36761 C 15.57 26.616 39.615 C 0.0 **** 0.0
36762 H 15.462 26.84 38.554 H 0.0 **** 0.0
36763 H 14.583 26.519 40.068 H 0.0 **** 0.0
36764 H 16.116 27.424 40.103 H 0.0 **** 0.0
36765 H 16.118 25.682 39.735 H 0.0 **** 0.0
36766 C 82.324 93.004 43.705 C 0.0 **** 0.0
36767 H 82.383 93.624 42.81 H 0.0 **** 0.0
36768 H 82.329 91.952 43.419 H 0.0 **** 0.0
36769 H 81.404 93.23 44.243 H 0.0 **** 0.0
36770 H 83.181 93.21 44.346 H 0.0 **** 0.0
36771 C 64.413 43.365 61.118 C 0.0 **** 0.0
36772 H 63.996 42.681 61.858 H 0.0 **** 0.0
36773 H 65.438 43.073 60.89 H 0.0 **** 0.0
36774 H 64.403 44.379 61.516 H 0.0 **** 0.0
36775 H 63.813 43.325 60.209 H 0.0 **** 0.0
36776 C 72.062 96.639 19.361 C 0.0 **** 0.0
36777 H 72.398 95.698 18.924 H 0.0 **** 0.0
36778 H 71.163 96.463 19.953 H 0.0 **** 0.0
36779 H 71.84 97.35 18.565 H 0.0 **** 0.0
36780 H 72.846 97.042 20.001 H 0.0 **** 0.0
36781 C 37.113 61.776 34.491 C 0.0 **** 0.0
36782 H 36.046 61.578 34.391 H 0.0 **** 0.0
36783 H 37.638 60.843 34.697 H 0.0 **** 0.0
36784 H 37.278 62.475 35.31 H 0.0 **** 0.0
36785 H 37.49 62.207 33.563 H 0.0 **** 0.0
36786 C 3.149 8.681 56.89 C 0.0 **** 0.0
36787 H 3.006 8.994 55.856 H 0.0 **** 0.0
36788 H 2.309 9.026 57.494 H 0.0 **** 0.0
36789 H 4.074 9.11 57.274 H 0.0 **** 0.0
36790 H 3.207 7.593 56.935 H 0.0 **** 0.0
36791 C 0.538 12.555 14.888 C 0.0 **** 0.0
36792 H 0.279 13.612 14.827 H 0.0 **** 0.0
36793 H 0.091 12.022 14.049 H 0.0 **** 0.0
36794 H 0.16 12.142 15.824 H 0.0 **** 0.0
36795 H 1.622 12.444 14.854 H 0.0 **** 0.0
36796 C 66.651 98.498 87.169 C 0.0 **** 0.0
36797 H 66.532 98.871 86.152 H 0.0 **** 0.0
36798 H 66.82 97.421 87.143 H 0.0 **** 0.0
36799 H 65.749 98.711 87.742 H 0.0 **** 0.0
36800 H 67.504 98.988 87.638 H 0.0 **** 0.0
36801 C 96.321 52.979 33.578 C 0.0 **** 0.0
36802 H 96.995 53.836 33.603 H 0.0 **** 0.0
36803 H 96.786 52.168 33.018 H 0.0 **** 0.0
36804 H 95.387 53.266 33.095 H 0.0 **** 0.0
36805 H 96.117 52.648 34.596 H 0.0 **** 0.0
36806 C 41.014 28.194 55.542 C 0.0 **** 0.0
36807 H 40.611 28.608 54.618 H 0.0 **** 0.0
36808 H 42.103 28.185 55.491 H 0.0 **** 0.0
36809 H 40.647 27.176 55.674 H 0.0 **** 0.0
36810 H 40.694 28.807 56.385 H 0.0 **** 0.0
36811 C 98.399 8.175 34.317 C 0.0 **** 0.0
36812 H 99.0 9.06 34.524 H 0.0 **** 0.0
36813 H 98.698 7.368 34.987 H 0.0 **** 0.0
36814 H 98.553 7.865 33.283 H 0.0 **** 0.0
36815 H 97.345 8.406 34.474 H 0.0 **** 0.0
36816 C 65.365 59.433 78.79 C 0.0 **** 0.0
36817 H 66.214 59.906 78.295 H 0.0 **** 0.0
36818 H 64.803 58.846 78.063 H 0.0 **** 0.0
36819 H 64.719 60.201 79.215 H 0.0 **** 0.0
36820 H 65.725 58.78 79.585 H 0.0 **** 0.0
36821 C 49.415 38.503 75.344 C 0.0 **** 0.0
36822 H 48.566 38.868 75.922 H 0.0 **** 0.0
36823 H 49.941 37.738 75.915 H 0.0 **** 0.0
36824 H 50.092 39.33 75.132 H 0.0 **** 0.0
36825 H 49.058 38.076 74.406 H 0.0 **** 0.0
36826 C 44.257 4.757 56.574 C 0.0 **** 0.0
36827 H 44.394 4.638 55.5 H 0.0 **** 0.0
36828 H 45.146 4.401 57.095 H 0.0 **** 0.0
36829 H 43.391 4.178 56.896 H 0.0 **** 0.0
36830 H 44.096 5.81 56.806 H 0.0 **** 0.0
36831 C 34.659 81.728 28.325 C 0.0 **** 0.0
36832 H 34.218 81.138 27.522 H 0.0 **** 0.0
36833 H 35.568 81.241 28.677 H 0.0 **** 0.0
36834 H 33.948 81.809 29.148 H 0.0 **** 0.0
36835 H 34.9 82.724 27.954 H 0.0 **** 0.0
36836 C 21.264 65.514 34.299 C 0.0 **** 0.0
36837 H 21.43 65.452 33.224 H 0.0 **** 0.0
36838 H 20.57 66.328 34.513 H 0.0 **** 0.0
36839 H 22.212 65.703 34.803 H 0.0 **** 0.0
36840 H 20.844 64.574 34.657 H 0.0 **** 0.0
36841 C 86.235 14.489 48.307 C 0.0 **** 0.0
36842 H 86.395 13.682 49.022 H 0.0 **** 0.0
36843 H 85.651 15.28 48.778 H 0.0 **** 0.0
36844 H 85.696 14.105 47.441 H 0.0 **** 0.0
36845 H 87.198 14.888 47.989 H 0.0 **** 0.0
36846 C 44.87 63.449 11.102 C 0.0 **** 0.0
36847 H 45.243 63.946 11.998 H 0.0 **** 0.0
36848 H 44.417 64.186 10.439 H 0.0 **** 0.0
36849 H 44.125 62.705 11.382 H 0.0 **** 0.0
36850 H 45.698 62.958 10.589 H 0.0 **** 0.0
36851 C 32.604 16.721 92.206 C 0.0 **** 0.0
36852 H 32.484 15.678 91.916 H 0.0 **** 0.0
36853 H 32.905 17.307 91.337 H 0.0 **** 0.0
36854 H 33.368 16.797 92.979 H 0.0 **** 0.0
36855 H 31.658 17.102 92.592 H 0.0 **** 0.0
36856 C 47.176 7.375 42.773 C 0.0 **** 0.0
36857 H 47.072 6.676 43.603 H 0.0 **** 0.0
36858 H 48.125 7.904 42.862 H 0.0 **** 0.0
36859 H 46.356 8.092 42.797 H 0.0 **** 0.0
36860 H 47.152 6.826 41.832 H 0.0 **** 0.0
36861 C 90.62 72.446 9.229 C 0.0 **** 0.0
36862 H 90.727 72.39 8.146 H 0.0 **** 0.0
36863 H 89.619 72.797 9.478 H 0.0 **** 0.0
36864 H 91.359 73.138 9.631 H 0.0 **** 0.0
36865 H 90.776 71.457 9.66 H 0.0 **** 0.0
36866 C 15.712 71.743 40.845 C 0.0 **** 0.0
36867 H 15.655 71.739 39.756 H 0.0 **** 0.0
36868 H 15.932 70.736 41.2 H 0.0 **** 0.0
36869 H 14.759 72.074 41.257 H 0.0 **** 0.0
36870 H 16.502 72.422 41.164 H 0.0 **** 0.0
36871 C 94.946 50.504 98.374 C 0.0 **** 0.0
36872 H 94.772 49.586 98.936 H 0.0 **** 0.0
36873 H 93.989 50.935 98.078 H 0.0 **** 0.0
36874 H 95.534 50.279 97.485 H 0.0 **** 0.0
36875 H 95.487 51.214 98.999 H 0.0 **** 0.0
36876 C 74.428 65.52 41.138 C 0.0 **** 0.0
36877 H 73.349 65.67 41.11 H 0.0 **** 0.0
36878 H 74.925 66.364 40.66 H 0.0 **** 0.0
36879 H 74.68 64.602 40.607 H 0.0 **** 0.0
36880 H 74.758 65.443 42.174 H 0.0 **** 0.0
36881 C 6.365 93.754 41.411 C 0.0 **** 0.0
36882 H 6.162 92.843 41.975 H 0.0 **** 0.0
36883 H 5.486 94.399 41.434 H 0.0 **** 0.0
36884 H 6.599 93.496 40.378 H 0.0 **** 0.0
36885 H 7.212 94.276 41.856 H 0.0 **** 0.0
36886 C 62.449 40.053 68.026 C 0.0 **** 0.0
36887 H 61.881 39.738 68.902 H 0.0 **** 0.0
36888 H 63.505 40.13 68.287 H 0.0 **** 0.0
36889 H 62.086 41.023 67.687 H 0.0 **** 0.0
36890 H 62.324 39.319 67.23 H 0.0 **** 0.0
36891 C 72.23 53.463 56.108 C 0.0 **** 0.0
36892 H 72.484 54.101 56.955 H 0.0 **** 0.0
36893 H 72.054 52.446 56.459 H 0.0 **** 0.0
36894 H 73.053 53.464 55.393 H 0.0 **** 0.0
36895 H 71.329 53.843 55.625 H 0.0 **** 0.0
36896 C 32.658 80.381 64.412 C 0.0 **** 0.0
36897 H 32.646 80.391 63.322 H 0.0 **** 0.0
36898 H 31.751 79.903 64.781 H 0.0 **** 0.0
36899 H 32.707 81.405 64.783 H 0.0 **** 0.0
36900 H 33.529 79.826 64.76 H 0.0 **** 0.0
36901 C 38.644 4.518 96.731 C 0.0 **** 0.0
36902 H 38.472 4.67 95.665 H 0.0 **** 0.0
36903 H 39.651 4.131 96.885 H 0.0 **** 0.0
36904 H 37.917 3.804 97.117 H 0.0 **** 0.0
36905 H 38.534 5.467 97.255 H 0.0 **** 0.0
36906 C 73.549 51.655 49.61 C 0.0 **** 0.0
36907 H 74.279 52.007 50.338 H 0.0 **** 0.0
36908 H 73.968 51.738 48.607 H 0.0 **** 0.0
36909 H 72.646 52.261 49.679 H 0.0 **** 0.0
36910 H 73.305 50.613 49.816 H 0.0 **** 0.0
36911 C 76.006 89.67 34.131 C 0.0 **** 0.0
36912 H 75.965 89.706 33.042 H 0.0 **** 0.0
36913 H 77.036 89.514 34.451 H 0.0 **** 0.0
36914 H 75.385 88.849 34.49 H 0.0 **** 0.0
36915 H 75.636 90.61 34.539 H 0.0 **** 0.0
36916 C 83.342 76.468 61.494 C 0.0 **** 0.0
36917 H 83.932 76.163 60.63 H 0.0 **** 0.0
36918 H 82.941 75.583 61.99 H 0.0 **** 0.0
36919 H 82.52 77.105 61.167 H 0.0 **** 0.0
36920 H 83.974 77.019 62.19 H 0.0 **** 0.0
36921 C 6.085 20.003 46.994 C 0.0 **** 0.0
36922 H 5.842 19.376 46.136 H 0.0 **** 0.0
36923 H 7.13 20.31 46.934 H 0.0 **** 0.0
36924 H 5.923 19.44 47.913 H 0.0 **** 0.0
36925 H 5.446 20.886 46.991 H 0.0 **** 0.0
36926 C 27.867 58.026 37.302 C 0.0 **** 0.0
36927 H 26.882 58.468 37.149 H 0.0 **** 0.0
36928 H 28.621 58.814 37.314 H 0.0 **** 0.0
36929 H 28.082 57.329 36.492 H 0.0 **** 0.0
36930 H 27.882 57.493 38.253 H 0.0 **** 0.0
36931 C 21.504 11.917 19.063 C 0.0 **** 0.0
36932 H 20.484 11.778 18.704 H 0.0 **** 0.0
36933 H 21.49 12.519 19.972 H 0.0 **** 0.0
36934 H 22.092 12.426 18.299 H 0.0 **** 0.0
36935 H 21.949 10.946 19.277 H 0.0 **** 0.0
36936 C 29.016 54.78 93.599 C 0.0 **** 0.0
36937 H 28.672 55.214 94.538 H 0.0 **** 0.0
36938 H 29.745 53.997 93.805 H 0.0 **** 0.0
36939 H 29.479 55.556 92.989 H 0.0 **** 0.0
36940 H 28.166 54.356 93.063 H 0.0 **** 0.0
36941 C 21.584 82.69 42.825 C 0.0 **** 0.0
36942 H 21.183 81.677 42.807 H 0.0 **** 0.0
36943 H 21.957 82.951 41.834 H 0.0 **** 0.0
36944 H 22.4 82.745 43.546 H 0.0 **** 0.0
36945 H 20.797 83.387 43.113 H 0.0 **** 0.0
36946 C 52.743 41.487 39.309 C 0.0 **** 0.0
36947 H 52.448 41.466 40.358 H 0.0 **** 0.0
36948 H 52.878 42.521 38.991 H 0.0 **** 0.0
36949 H 51.965 41.02 38.704 H 0.0 **** 0.0
36950 H 53.678 40.942 39.183 H 0.0 **** 0.0
36951 C 47.642 42.33 65.639 C 0.0 **** 0.0
36952 H 46.745 42.444 65.032 H 0.0 **** 0.0
36953 H 48.472 42.015 65.006 H 0.0 **** 0.0
36954 H 47.467 41.578 66.409 H 0.0 **** 0.0
36955 H 47.886 43.282 66.111 H 0.0 **** 0.0
36956 C 9.554 4.587 15.699 C 0.0 **** 0.0
36957 H 8.817 4.234 16.42 H 0.0 **** 0.0
36958 H 10.348 3.847 15.599 H 0.0 **** 0.0
36959 H 9.977 5.53 16.044 H 0.0 **** 0.0
36960 H 9.073 4.737 14.732 H 0.0 **** 0.0
36961 C 39.63 86.02 40.655 C 0.0 **** 0.0
36962 H 40.433 86.23 39.949 H 0.0 **** 0.0
36963 H 38.685 85.939 40.116 H 0.0 **** 0.0
36964 H 39.565 86.829 41.382 H 0.0 **** 0.0
36965 H 39.836 85.083 41.171 H 0.0 **** 0.0
36966 C 40.074 89.493 31.224 C 0.0 **** 0.0
36967 H 40.441 89.926 32.154 H 0.0 **** 0.0
36968 H 40.769 88.727 30.88 H 0.0 **** 0.0
36969 H 39.99 90.274 30.468 H 0.0 **** 0.0
36970 H 39.094 89.046 31.394 H 0.0 **** 0.0
36971 C 6.139 17.939 71.374 C 0.0 **** 0.0
36972 H 5.647 17.499 70.507 H 0.0 **** 0.0
36973 H 6.871 18.676 71.041 H 0.0 **** 0.0
36974 H 6.643 17.157 71.941 H 0.0 **** 0.0
36975 H 5.396 18.425 72.006 H 0.0 **** 0.0
36976 C 3.304 33.812 40.207 C 0.0 **** 0.0
36977 H 3.19 33.62 41.274 H 0.0 **** 0.0
36978 H 4.345 33.662 39.92 H 0.0 **** 0.0
36979 H 3.011 34.839 39.99 H 0.0 **** 0.0
36980 H 2.669 33.126 39.646 H 0.0 **** 0.0
36981 C 18.596 40.999 23.982 C 0.0 **** 0.0
36982 H 17.855 40.5 24.607 H 0.0 **** 0.0
36983 H 18.342 40.853 22.932 H 0.0 **** 0.0
36984 H 19.581 40.578 24.181 H 0.0 **** 0.0
36985 H 18.604 42.065 24.21 H 0.0 **** 0.0
36986 C 94.254 24.263 91.769 C 0.0 **** 0.0
36987 H 94.325 24.823 90.837 H 0.0 **** 0.0
36988 H 93.619 23.389 91.621 H 0.0 **** 0.0
36989 H 93.822 24.899 92.542 H 0.0 **** 0.0
36990 H 95.249 23.942 92.077 H 0.0 **** 0.0
36991 C 28.804 68.635 35.634 C 0.0 **** 0.0
36992 H 29.268 69.62 35.681 H 0.0 **** 0.0
36993 H 29.552 67.895 35.351 H 0.0 **** 0.0
36994 H 28.004 68.645 34.894 H 0.0 **** 0.0
36995 H 28.393 68.381 36.611 H 0.0 **** 0.0
36996 C 12.684 3.229 55.369 C 0.0 **** 0.0
36997 H 12.923 2.492 54.602 H 0.0 **** 0.0
36998 H 13.39 4.058 55.308 H 0.0 **** 0.0
36999 H 12.751 2.765 56.352 H 0.0 **** 0.0
37000 H 11.672 3.602 55.21 H 0.0 **** 0.0
37001 C 74.496 32.015 42.309 C 0.0 **** 0.0
37002 H 74.011 32.954 42.578 H 0.0 **** 0.0
37003 H 74.131 31.684 41.336 H 0.0 **** 0.0
37004 H 74.266 31.26 43.06 H 0.0 **** 0.0
37005 H 75.575 32.164 42.261 H 0.0 **** 0.0
37006 C 55.775 26.853 75.079 C 0.0 **** 0.0
37007 H 56.072 27.27 74.117 H 0.0 **** 0.0
37008 H 55.04 26.063 74.921 H 0.0 **** 0.0
37009 H 55.337 27.638 75.696 H 0.0 **** 0.0
37010 H 56.65 26.441 75.582 H 0.0 **** 0.0
37011 C 70.388 50.792 59.098 C 0.0 **** 0.0
37012 H 70.461 51.792 59.526 H 0.0 **** 0.0
37013 H 71.016 50.107 59.667 H 0.0 **** 0.0
37014 H 70.724 50.817 58.061 H 0.0 **** 0.0
37015 H 69.353 50.454 59.137 H 0.0 **** 0.0
37016 C 63.207 83.548 35.246 C 0.0 **** 0.0
37017 H 63.453 83.274 34.22 H 0.0 **** 0.0
37018 H 63.844 82.99 35.933 H 0.0 **** 0.0
37019 H 62.162 83.31 35.445 H 0.0 **** 0.0
37020 H 63.37 84.616 35.386 H 0.0 **** 0.0
37021 C 93.632 51.043 36.243 C 0.0 **** 0.0
37022 H 93.424 50.441 35.359 H 0.0 **** 0.0
37023 H 94.111 50.423 37.001 H 0.0 **** 0.0
37024 H 92.697 51.443 36.638 H 0.0 **** 0.0
37025 H 94.294 51.866 35.974 H 0.0 **** 0.0
37026 C 44.087 45.107 3.809 C 0.0 **** 0.0
37027 H 44.452 45.423 2.832 H 0.0 **** 0.0
37028 H 44.887 44.599 4.349 H 0.0 **** 0.0
37029 H 43.246 44.425 3.679 H 0.0 **** 0.0
37030 H 43.762 45.98 4.376 H 0.0 **** 0.0
37031 C 94.836 13.535 81.891 C 0.0 **** 0.0
37032 H 93.919 12.986 82.105 H 0.0 **** 0.0
37033 H 95.17 13.304 80.88 H 0.0 **** 0.0
37034 H 95.608 13.244 82.604 H 0.0 **** 0.0
37035 H 94.647 14.605 81.976 H 0.0 **** 0.0
37036 C 35.068 27.199 84.696 C 0.0 **** 0.0
37037 H 35.285 26.966 83.654 H 0.0 **** 0.0
37038 H 35.997 27.436 85.216 H 0.0 **** 0.0
37039 H 34.595 26.339 85.17 H 0.0 **** 0.0
37040 H 34.396 28.056 84.744 H 0.0 **** 0.0
37041 C 84.942 97.17 7.2 C 0.0 **** 0.0
37042 H 85.391 96.362 6.623 H 0.0 **** 0.0
37043 H 85.726 97.832 7.57 H 0.0 **** 0.0
37044 H 84.391 96.752 8.043 H 0.0 **** 0.0
37045 H 84.259 97.734 6.564 H 0.0 **** 0.0
37046 C 18.027 58.604 28.073 C 0.0 **** 0.0
37047 H 17.167 59.212 28.353 H 0.0 **** 0.0
37048 H 18.071 58.516 26.987 H 0.0 **** 0.0
37049 H 17.931 57.613 28.515 H 0.0 **** 0.0
37050 H 18.94 59.077 28.436 H 0.0 **** 0.0
37051 C 32.407 87.918 66.48 C 0.0 **** 0.0
37052 H 32.37 87.778 67.561 H 0.0 **** 0.0
37053 H 31.505 87.505 66.03 H 0.0 **** 0.0
37054 H 33.282 87.406 66.078 H 0.0 **** 0.0
37055 H 32.473 88.982 66.254 H 0.0 **** 0.0
37056 C 30.111 77.714 54.624 C 0.0 **** 0.0
37057 H 29.8 76.697 54.866 H 0.0 **** 0.0
37058 H 31.185 77.813 54.783 H 0.0 **** 0.0
37059 H 29.582 78.417 55.267 H 0.0 **** 0.0
37060 H 29.876 77.927 53.582 H 0.0 **** 0.0
37061 C 86.323 85.379 6.223 C 0.0 **** 0.0
37062 H 85.502 86.07 6.03 H 0.0 **** 0.0
37063 H 86.413 84.681 5.391 H 0.0 **** 0.0
37064 H 86.124 84.827 7.142 H 0.0 **** 0.0
37065 H 87.252 85.939 6.33 H 0.0 **** 0.0
37066 C 26.649 37.136 51.315 C 0.0 **** 0.0
37067 H 27.433 36.916 52.04 H 0.0 **** 0.0
37068 H 27.097 37.55 50.411 H 0.0 **** 0.0
37069 H 25.954 37.86 51.74 H 0.0 **** 0.0
37070 H 26.114 36.219 51.068 H 0.0 **** 0.0
37071 C 65.28 81.375 63.726 C 0.0 **** 0.0
37072 H 64.193 81.288 63.74 H 0.0 **** 0.0
37073 H 65.7 80.574 63.118 H 0.0 **** 0.0
37074 H 65.663 81.3 64.743 H 0.0 **** 0.0
37075 H 65.561 82.339 63.302 H 0.0 **** 0.0
37076 C 40.082 23.103 44.706 C 0.0 **** 0.0
37077 H 40.222 22.891 45.767 H 0.0 **** 0.0
37078 H 39.197 23.726 44.574 H 0.0 **** 0.0
37079 H 39.954 22.167 44.163 H 0.0 **** 0.0
37080 H 40.957 23.629 44.323 H 0.0 **** 0.0
37081 C 96.245 77.752 34.933 C 0.0 **** 0.0
37082 H 95.528 76.958 34.724 H 0.0 **** 0.0
37083 H 96.817 77.971 34.031 H 0.0 **** 0.0
37084 H 96.922 77.431 35.724 H 0.0 **** 0.0
37085 H 95.712 78.648 35.251 H 0.0 **** 0.0
37086 C 20.098 27.531 66.369 C 0.0 **** 0.0
37087 H 19.816 27.297 67.395 H 0.0 **** 0.0
37088 H 19.893 26.671 65.731 H 0.0 **** 0.0
37089 H 21.161 27.768 66.329 H 0.0 **** 0.0
37090 H 19.522 28.388 66.021 H 0.0 **** 0.0
37091 C 43.567 97.763 68.081 C 0.0 **** 0.0
37092 H 42.736 97.058 68.082 H 0.0 **** 0.0
37093 H 43.914 97.914 67.058 H 0.0 **** 0.0
37094 H 44.382 97.364 68.686 H 0.0 **** 0.0
37095 H 43.238 98.715 68.497 H 0.0 **** 0.0
37096 C 49.809 39.875 66.521 C 0.0 **** 0.0
37097 H 49.805 39.895 65.431 H 0.0 **** 0.0
37098 H 48.789 39.754 66.886 H 0.0 **** 0.0
37099 H 50.223 40.81 66.9 H 0.0 **** 0.0
37100 H 50.421 39.041 66.866 H 0.0 **** 0.0
37101 C 69.876 13.206 61.199 C 0.0 **** 0.0
37102 H 69.997 12.791 60.199 H 0.0 **** 0.0
37103 H 68.841 13.085 61.52 H 0.0 **** 0.0
37104 H 70.132 14.265 61.186 H 0.0 **** 0.0
37105 H 70.534 12.681 61.892 H 0.0 **** 0.0
37106 C 19.215 50.798 65.728 C 0.0 **** 0.0
37107 H 19.813 49.89 65.8 H 0.0 **** 0.0
37108 H 19.59 51.416 64.913 H 0.0 **** 0.0
37109 H 19.282 51.352 66.665 H 0.0 **** 0.0
37110 H 18.175 50.533 65.536 H 0.0 **** 0.0
37111 C 51.359 4.433 27.39 C 0.0 **** 0.0
37112 H 51.151 4.203 28.435 H 0.0 **** 0.0
37113 H 51.548 3.507 26.846 H 0.0 **** 0.0
37114 H 52.235 5.078 27.327 H 0.0 **** 0.0
37115 H 50.5 4.942 26.953 H 0.0 **** 0.0
37116 C 73.114 2.822 84.85 C 0.0 **** 0.0
37117 H 72.931 3.772 85.352 H 0.0 **** 0.0
37118 H 72.161 2.358 84.592 H 0.0 **** 0.0
37119 H 73.672 2.162 85.513 H 0.0 **** 0.0
37120 H 73.691 2.996 83.942 H 0.0 **** 0.0
37121 C 46.597 73.925 30.332 C 0.0 **** 0.0
37122 H 46.242 74.884 29.955 H 0.0 **** 0.0
37123 H 47.455 73.599 29.744 H 0.0 **** 0.0
37124 H 45.799 73.186 30.251 H 0.0 **** 0.0
37125 H 46.89 74.031 31.376 H 0.0 **** 0.0
37126 C 90.404 1.735 93.785 C 0.0 **** 0.0
37127 H 89.887 1.556 94.728 H 0.0 **** 0.0
37128 H 90.413 0.817 93.197 H 0.0 **** 0.0
37129 H 91.429 2.048 93.986 H 0.0 **** 0.0
37130 H 89.887 2.517 93.23 H 0.0 **** 0.0
37131 C 10.262 7.888 89.781 C 0.0 **** 0.0
37132 H 10.313 7.729 90.858 H 0.0 **** 0.0
37133 H 9.286 8.297 89.52 H 0.0 **** 0.0
37134 H 10.408 6.938 89.267 H 0.0 **** 0.0
37135 H 11.042 8.587 89.48 H 0.0 **** 0.0
37136 C 52.0 38.456 83.518 C 0.0 **** 0.0
37137 H 52.896 38.265 82.927 H 0.0 **** 0.0
37138 H 51.548 39.395 83.199 H 0.0 **** 0.0
37139 H 52.268 38.52 84.573 H 0.0 **** 0.0
37140 H 51.29 37.642 83.372 H 0.0 **** 0.0
37141 C 94.659 49.918 21.982 C 0.0 **** 0.0
37142 H 94.724 49.995 20.897 H 0.0 **** 0.0
37143 H 95.548 50.362 22.431 H 0.0 **** 0.0
37144 H 94.592 48.868 22.268 H 0.0 **** 0.0
37145 H 93.773 50.447 22.332 H 0.0 **** 0.0
37146 C 33.634 46.805 34.391 C 0.0 **** 0.0
37147 H 33.16 47.31 33.549 H 0.0 **** 0.0
37148 H 34.53 46.288 34.046 H 0.0 **** 0.0
37149 H 32.94 46.083 34.82 H 0.0 **** 0.0
37150 H 33.908 47.54 35.148 H 0.0 **** 0.0
37151 C 61.637 61.589 9.002 C 0.0 **** 0.0
37152 H 61.411 61.579 7.935 H 0.0 **** 0.0
37153 H 62.705 61.749 9.145 H 0.0 **** 0.0
37154 H 61.35 60.634 9.443 H 0.0 **** 0.0
37155 H 61.08 62.393 9.483 H 0.0 **** 0.0
37156 C 20.242 66.073 24.898 C 0.0 **** 0.0
37157 H 20.271 66.045 23.808 H 0.0 **** 0.0
37158 H 21.105 65.541 25.298 H 0.0 **** 0.0
37159 H 19.326 65.597 25.248 H 0.0 **** 0.0
37160 H 20.265 67.11 25.235 H 0.0 **** 0.0
37161 C 9.06 40.319 36.112 C 0.0 **** 0.0
37162 H 8.394 39.679 35.533 H 0.0 **** 0.0
37163 H 8.669 41.337 36.119 H 0.0 **** 0.0
37164 H 10.052 40.314 35.661 H 0.0 **** 0.0
37165 H 9.123 39.947 37.134 H 0.0 **** 0.0
37166 C 88.666 47.694 76.737 C 0.0 **** 0.0
37167 H 87.994 47.395 75.933 H 0.0 **** 0.0
37168 H 88.383 48.683 77.098 H 0.0 **** 0.0
37169 H 89.69 47.723 76.363 H 0.0 **** 0.0
37170 H 88.598 46.975 77.553 H 0.0 **** 0.0
37171 C 68.981 23.61 55.556 C 0.0 **** 0.0
37172 H 69.196 23.502 54.493 H 0.0 **** 0.0
37173 H 69.162 24.641 55.86 H 0.0 **** 0.0
37174 H 69.628 22.943 56.126 H 0.0 **** 0.0
37175 H 67.939 23.353 55.743 H 0.0 **** 0.0
37176 C 84.868 69.726 43.834 C 0.0 **** 0.0
37177 H 84.873 69.707 42.744 H 0.0 **** 0.0
37178 H 85.87 69.511 44.206 H 0.0 **** 0.0
37179 H 84.173 68.973 44.206 H 0.0 **** 0.0
37180 H 84.555 70.712 44.178 H 0.0 **** 0.0
37181 C 50.028 78.305 63.215 C 0.0 **** 0.0
37182 H 50.921 78.886 62.987 H 0.0 **** 0.0
37183 H 49.876 78.282 64.294 H 0.0 **** 0.0
37184 H 50.152 77.288 62.843 H 0.0 **** 0.0
37185 H 49.164 78.764 62.736 H 0.0 **** 0.0
37186 C 40.923 52.783 33.647 C 0.0 **** 0.0
37187 H 41.018 52.964 34.718 H 0.0 **** 0.0
37188 H 39.874 52.856 33.358 H 0.0 **** 0.0
37189 H 41.296 51.785 33.413 H 0.0 **** 0.0
37190 H 41.504 53.525 33.1 H 0.0 **** 0.0
37191 C 44.708 1.394 5.651 C 0.0 **** 0.0
37192 H 44.976 0.553 5.011 H 0.0 **** 0.0
37193 H 44.434 1.025 6.639 H 0.0 **** 0.0
37194 H 43.864 1.929 5.215 H 0.0 **** 0.0
37195 H 45.56 2.069 5.738 H 0.0 **** 0.0
37196 C 70.506 22.683 29.498 C 0.0 **** 0.0
37197 H 70.153 21.694 29.787 H 0.0 **** 0.0
37198 H 71.062 22.611 28.563 H 0.0 **** 0.0
37199 H 71.156 23.08 30.278 H 0.0 **** 0.0
37200 H 69.652 23.348 29.363 H 0.0 **** 0.0
37201 C 74.912 97.56 66.625 C 0.0 **** 0.0
37202 H 74.222 97.209 65.858 H 0.0 **** 0.0
37203 H 74.944 98.649 66.615 H 0.0 **** 0.0
37204 H 75.908 97.165 66.424 H 0.0 **** 0.0
37205 H 74.575 97.215 67.602 H 0.0 **** 0.0
37206 C 43.242 31.571 6.607 C 0.0 **** 0.0
37207 H 44.222 31.119 6.455 H 0.0 **** 0.0
37208 H 43.231 32.57 6.172 H 0.0 **** 0.0
37209 H 43.033 31.636 7.675 H 0.0 **** 0.0
37210 H 42.481 30.956 6.125 H 0.0 **** 0.0
37211 C 31.176 24.09 71.813 C 0.0 **** 0.0
37212 H 30.403 24.48 72.476 H 0.0 **** 0.0
37213 H 31.95 24.845 71.675 H 0.0 **** 0.0
37214 H 30.734 23.84 70.849 H 0.0 **** 0.0
37215 H 31.615 23.195 72.255 H 0.0 **** 0.0
37216 C 20.214 9.799 21.112 C 0.0 **** 0.0
37217 H 19.441 9.967 20.362 H 0.0 **** 0.0
37218 H 19.769 9.337 21.994 H 0.0 **** 0.0
37219 H 20.665 10.752 21.389 H 0.0 **** 0.0
37220 H 20.98 9.14 20.703 H 0.0 **** 0.0
37221 C 86.786 82.249 50.558 C 0.0 **** 0.0
37222 H 86.639 81.956 51.597 H 0.0 **** 0.0
37223 H 85.887 82.02 49.985 H 0.0 **** 0.0
37224 H 87.631 81.701 50.142 H 0.0 **** 0.0
37225 H 86.986 83.319 50.508 H 0.0 **** 0.0
37226 C 62.384 67.736 74.921 C 0.0 **** 0.0
37227 H 62.306 67.595 73.843 H 0.0 **** 0.0
37228 H 63.15 68.481 75.135 H 0.0 **** 0.0
37229 H 62.654 66.79 75.392 H 0.0 **** 0.0
37230 H 61.426 68.076 75.312 H 0.0 **** 0.0
37231 C 23.182 85.46 54.344 C 0.0 **** 0.0
37232 H 23.799 84.6 54.605 H 0.0 **** 0.0
37233 H 23.294 86.232 55.106 H 0.0 **** 0.0
37234 H 22.137 85.153 54.289 H 0.0 **** 0.0
37235 H 23.497 85.853 53.378 H 0.0 **** 0.0
37236 C 97.133 26.94 83.395 C 0.0 **** 0.0
37237 H 97.232 27.42 84.369 H 0.0 **** 0.0
37238 H 96.27 27.353 82.873 H 0.0 **** 0.0
37239 H 96.998 25.867 83.531 H 0.0 **** 0.0
37240 H 98.034 27.121 82.809 H 0.0 **** 0.0
37241 C 84.249 47.587 57.312 C 0.0 **** 0.0
37242 H 84.398 47.534 56.233 H 0.0 **** 0.0
37243 H 83.199 47.789 57.524 H 0.0 **** 0.0
37244 H 84.864 48.387 57.724 H 0.0 **** 0.0
37245 H 84.536 46.638 57.765 H 0.0 **** 0.0
37246 C 21.831 69.838 17.102 C 0.0 **** 0.0
37247 H 21.43 69.258 16.271 H 0.0 **** 0.0
37248 H 22.038 69.175 17.942 H 0.0 **** 0.0
37249 H 21.102 70.591 17.404 H 0.0 **** 0.0
37250 H 22.752 70.33 16.79 H 0.0 **** 0.0
37251 C 54.471 25.23 27.393 C 0.0 **** 0.0
37252 H 55.453 25.048 27.83 H 0.0 **** 0.0
37253 H 53.7 24.834 28.055 H 0.0 **** 0.0
37254 H 54.407 24.736 26.424 H 0.0 **** 0.0
37255 H 54.324 26.303 27.265 H 0.0 **** 0.0
37256 C 78.71 50.27 51.848 C 0.0 **** 0.0
37257 H 79.198 50.617 50.938 H 0.0 **** 0.0
37258 H 79.414 50.317 52.679 H 0.0 **** 0.0
37259 H 78.377 49.24 51.712 H 0.0 **** 0.0
37260 H 77.85 50.904 52.064 H 0.0 **** 0.0
37261 C 98.486 89.229 39.489 C 0.0 **** 0.0
37262 H 98.494 88.994 38.425 H 0.0 **** 0.0
37263 H 99.0 90.176 39.655 H 0.0 **** 0.0
37264 H 98.996 88.438 40.039 H 0.0 **** 0.0
37265 H 97.456 89.308 39.836 H 0.0 **** 0.0
37266 C 92.601 3.134 53.669 C 0.0 **** 0.0
37267 H 93.196 2.222 53.715 H 0.0 **** 0.0
37268 H 91.542 2.877 53.677 H 0.0 **** 0.0
37269 H 92.838 3.676 52.753 H 0.0 **** 0.0
37270 H 92.83 3.761 54.531 H 0.0 **** 0.0
37271 C 73.454 83.666 87.961 C 0.0 **** 0.0
37272 H 73.381 83.589 86.876 H 0.0 **** 0.0
37273 H 72.59 83.181 88.418 H 0.0 **** 0.0
37274 H 73.476 84.717 88.25 H 0.0 **** 0.0
37275 H 74.367 83.176 88.299 H 0.0 **** 0.0
37276 C 58.794 46.833 52.421 C 0.0 **** 0.0
37277 H 58.68 46.608 51.361 H 0.0 **** 0.0
37278 H 58.725 45.911 52.998 H 0.0 **** 0.0
37279 H 58.006 47.518 52.734 H 0.0 **** 0.0
37280 H 59.766 47.296 52.591 H 0.0 **** 0.0
37281 C 0.615 43.14 34.271 C 0.0 **** 0.0
37282 H 1.422 42.904 34.964 H 0.0 **** 0.0
37283 H 0.001 42.253 34.113 H 0.0 **** 0.0
37284 H 1.037 43.464 33.319 H 0.0 **** 0.0
37285 H 0.001 43.938 34.687 H 0.0 **** 0.0
37286 C 4.565 79.922 3.799 C 0.0 **** 0.0
37287 H 4.684 79.942 2.715 H 0.0 **** 0.0
37288 H 4.812 80.902 4.209 H 0.0 **** 0.0
37289 H 5.231 79.171 4.223 H 0.0 **** 0.0
37290 H 3.533 79.674 4.046 H 0.0 **** 0.0
37291 C 6.286 84.154 76.82 C 0.0 **** 0.0
37292 H 6.52 84.086 77.883 H 0.0 **** 0.0
37293 H 6.676 85.091 76.422 H 0.0 **** 0.0
37294 H 5.205 84.122 76.683 H 0.0 **** 0.0
37295 H 6.744 83.317 76.294 H 0.0 **** 0.0
37296 C 93.594 37.307 67.054 C 0.0 **** 0.0
37297 H 93.017 37.366 67.977 H 0.0 **** 0.0
37298 H 94.102 36.344 67.004 H 0.0 **** 0.0
37299 H 94.331 38.109 67.034 H 0.0 **** 0.0
37300 H 92.924 37.409 66.2 H 0.0 **** 0.0
37301 C 15.794 75.268 92.68 C 0.0 **** 0.0
37302 H 15.545 74.211 92.594 H 0.0 **** 0.0
37303 H 15.349 75.673 93.589 H 0.0 **** 0.0
37304 H 15.404 75.804 91.815 H 0.0 **** 0.0
37305 H 16.877 75.384 92.722 H 0.0 **** 0.0
37306 C 56.735 78.397 50.754 C 0.0 **** 0.0
37307 H 56.915 77.456 51.274 H 0.0 **** 0.0
37308 H 56.153 79.06 51.395 H 0.0 **** 0.0
37309 H 56.183 78.203 49.834 H 0.0 **** 0.0
37310 H 57.688 78.867 50.514 H 0.0 **** 0.0
37311 C 59.62 79.946 23.974 C 0.0 **** 0.0
37312 H 60.024 80.933 24.202 H 0.0 **** 0.0
37313 H 60.409 79.2 24.069 H 0.0 **** 0.0
37314 H 59.232 79.939 22.955 H 0.0 **** 0.0
37315 H 58.814 79.715 24.671 H 0.0 **** 0.0
37316 C 78.714 0.971 67.553 C 0.0 **** 0.0
37317 H 77.725 0.662 67.215 H 0.0 **** 0.0
37318 H 79.378 0.107 67.568 H 0.0 **** 0.0
37319 H 78.639 1.39 68.557 H 0.0 **** 0.0
37320 H 79.111 1.724 66.873 H 0.0 **** 0.0
37321 C 30.962 81.641 11.148 C 0.0 **** 0.0
37322 H 30.019 81.095 11.166 H 0.0 **** 0.0
37323 H 31.712 81.053 10.618 H 0.0 **** 0.0
37324 H 31.297 81.821 12.17 H 0.0 **** 0.0
37325 H 30.82 82.594 10.638 H 0.0 **** 0.0
37326 C 88.593 2.956 98.288 C 0.0 **** 0.0
37327 H 88.923 2.702 97.28 H 0.0 **** 0.0
37328 H 89.379 2.707 99.001 H 0.0 **** 0.0
37329 H 87.692 2.391 98.527 H 0.0 **** 0.0
37330 H 88.378 4.023 98.341 H 0.0 **** 0.0
37331 C 34.191 13.903 32.175 C 0.0 **** 0.0
37332 H 34.94 14.647 31.902 H 0.0 **** 0.0
37333 H 33.797 14.133 33.165 H 0.0 **** 0.0
37334 H 34.65 12.914 32.187 H 0.0 **** 0.0
37335 H 33.38 13.919 31.447 H 0.0 **** 0.0
37336 C 43.69 56.925 39.726 C 0.0 **** 0.0
37337 H 43.641 56.805 40.808 H 0.0 **** 0.0
37338 H 43.863 57.974 39.485 H 0.0 **** 0.0
37339 H 42.75 56.6 39.282 H 0.0 **** 0.0
37340 H 44.507 56.322 39.331 H 0.0 **** 0.0
37341 C 93.879 63.179 65.798 C 0.0 **** 0.0
37342 H 93.972 62.376 66.529 H 0.0 **** 0.0
37343 H 92.828 63.319 65.545 H 0.0 **** 0.0
37344 H 94.438 62.919 64.899 H 0.0 **** 0.0
37345 H 94.278 64.102 66.22 H 0.0 **** 0.0
37346 C 81.206 62.776 90.032 C 0.0 **** 0.0
37347 H 80.655 63.717 90.042 H 0.0 **** 0.0
37348 H 81.802 62.715 89.121 H 0.0 **** 0.0
37349 H 80.504 61.944 90.064 H 0.0 **** 0.0
37350 H 81.863 62.731 90.9 H 0.0 **** 0.0
37351 C 53.335 85.307 93.5 C 0.0 **** 0.0
37352 H 53.435 84.225 93.589 H 0.0 **** 0.0
37353 H 54.215 85.789 93.926 H 0.0 **** 0.0
37354 H 52.445 85.634 94.038 H 0.0 **** 0.0
37355 H 53.244 85.578 92.449 H 0.0 **** 0.0
37356 C 4.705 5.738 48.271 C 0.0 **** 0.0
37357 H 4.95 5.518 49.31 H 0.0 **** 0.0
37358 H 4.929 6.784 48.06 H 0.0 **** 0.0
37359 H 3.645 5.551 48.1 H 0.0 **** 0.0
37360 H 5.297 5.099 47.616 H 0.0 **** 0.0
37361 C 26.177 40.767 16.288 C 0.0 **** 0.0
37362 H 26.095 40.757 15.201 H 0.0 **** 0.0
37363 H 25.186 40.883 16.726 H 0.0 **** 0.0
37364 H 26.811 41.598 16.597 H 0.0 **** 0.0
37365 H 26.617 39.829 16.628 H 0.0 **** 0.0
37366 C 71.628 92.48 10.285 C 0.0 **** 0.0
37367 H 72.109 91.599 10.71 H 0.0 **** 0.0
37368 H 72.019 93.375 10.769 H 0.0 **** 0.0
37369 H 70.552 92.42 10.447 H 0.0 **** 0.0
37370 H 71.833 92.526 9.216 H 0.0 **** 0.0
37371 C 81.6 54.19 89.655 C 0.0 **** 0.0
37372 H 80.565 53.849 89.63 H 0.0 **** 0.0
37373 H 81.669 55.096 90.258 H 0.0 **** 0.0
37374 H 81.936 54.402 88.64 H 0.0 **** 0.0
37375 H 82.228 53.414 90.091 H 0.0 **** 0.0
37376 C 84.985 61.415 41.463 C 0.0 **** 0.0
37377 H 86.067 61.457 41.34 H 0.0 **** 0.0
37378 H 84.505 61.937 40.635 H 0.0 **** 0.0
37379 H 84.708 61.891 42.403 H 0.0 **** 0.0
37380 H 84.662 60.374 41.474 H 0.0 **** 0.0
37381 C 52.847 51.207 46.694 C 0.0 **** 0.0
37382 H 52.471 51.566 45.736 H 0.0 **** 0.0
37383 H 52.519 50.179 46.85 H 0.0 **** 0.0
37384 H 52.462 51.838 47.495 H 0.0 **** 0.0
37385 H 53.937 51.244 46.693 H 0.0 **** 0.0
37386 C 90.312 51.943 10.082 C 0.0 **** 0.0
37387 H 89.543 52.644 10.407 H 0.0 **** 0.0
37388 H 90.921 52.406 9.305 H 0.0 **** 0.0
37389 H 89.84 51.043 9.687 H 0.0 **** 0.0
37390 H 90.944 51.679 10.93 H 0.0 **** 0.0
37391 C 54.719 20.729 62.951 C 0.0 **** 0.0
37392 H 54.305 20.907 63.944 H 0.0 **** 0.0
37393 H 55.093 19.707 62.891 H 0.0 **** 0.0
37394 H 55.536 21.427 62.768 H 0.0 **** 0.0
37395 H 53.941 20.877 62.202 H 0.0 **** 0.0
37396 C 44.499 35.034 37.048 C 0.0 **** 0.0
37397 H 45.191 34.581 37.758 H 0.0 **** 0.0
37398 H 43.598 34.424 36.98 H 0.0 **** 0.0
37399 H 44.972 35.095 36.068 H 0.0 **** 0.0
37400 H 44.235 36.036 37.388 H 0.0 **** 0.0
37401 C 35.609 52.969 45.987 C 0.0 **** 0.0
37402 H 35.295 53.593 45.149 H 0.0 **** 0.0
37403 H 34.736 52.494 46.434 H 0.0 **** 0.0
37404 H 36.109 53.588 46.732 H 0.0 **** 0.0
37405 H 36.298 52.203 45.63 H 0.0 **** 0.0
37406 C 75.847 70.347 66.735 C 0.0 **** 0.0
37407 H 75.538 69.302 66.761 H 0.0 **** 0.0
37408 H 75.531 70.843 67.653 H 0.0 **** 0.0
37409 H 75.387 70.84 65.878 H 0.0 **** 0.0
37410 H 76.932 70.403 66.646 H 0.0 **** 0.0
37411 C 5.744 71.361 60.531 C 0.0 **** 0.0
37412 H 4.714 71.423 60.882 H 0.0 **** 0.0
37413 H 5.816 70.605 59.748 H 0.0 **** 0.0
37414 H 6.395 71.089 61.361 H 0.0 **** 0.0
37415 H 6.05 72.328 60.131 H 0.0 **** 0.0
37416 C 74.884 12.311 6.881 C 0.0 **** 0.0
37417 H 75.427 12.631 7.77 H 0.0 **** 0.0
37418 H 75.553 12.329 6.02 H 0.0 **** 0.0
37419 H 74.046 12.985 6.705 H 0.0 **** 0.0
37420 H 74.51 11.298 7.029 H 0.0 **** 0.0
37421 C 67.41 48.254 90.241 C 0.0 **** 0.0
37422 H 67.795 48.983 90.955 H 0.0 **** 0.0
37423 H 67.389 47.268 90.705 H 0.0 **** 0.0
37424 H 68.055 48.23 89.363 H 0.0 **** 0.0
37425 H 66.4 48.537 89.943 H 0.0 **** 0.0
37426 C 15.188 75.564 26.885 C 0.0 **** 0.0
37427 H 15.541 75.382 25.87 H 0.0 **** 0.0
37428 H 14.947 76.621 27.001 H 0.0 **** 0.0
37429 H 15.967 75.288 27.595 H 0.0 **** 0.0
37430 H 14.297 74.965 27.072 H 0.0 **** 0.0
37431 C 72.039 4.299 1.287 C 0.0 **** 0.0
37432 H 71.225 5.001 1.469 H 0.0 **** 0.0
37433 H 72.682 4.254 2.167 H 0.0 **** 0.0
37434 H 72.621 4.633 0.428 H 0.0 **** 0.0
37435 H 71.627 3.311 1.086 H 0.0 **** 0.0
37436 C 59.444 28.422 34.95 C 0.0 **** 0.0
37437 H 59.396 28.431 36.039 H 0.0 **** 0.0
37438 H 58.504 28.043 34.548 H 0.0 **** 0.0
37439 H 60.263 27.778 34.628 H 0.0 **** 0.0
37440 H 59.613 29.435 34.585 H 0.0 **** 0.0
37441 C 60.303 56.244 31.561 C 0.0 **** 0.0
37442 H 60.356 55.444 30.823 H 0.0 **** 0.0
37443 H 59.998 57.17 31.072 H 0.0 **** 0.0
37444 H 61.283 56.38 32.019 H 0.0 **** 0.0
37445 H 59.576 55.982 32.33 H 0.0 **** 0.0
37446 C 45.333 34.912 85.137 C 0.0 **** 0.0
37447 H 45.68 34.974 84.105 H 0.0 **** 0.0
37448 H 45.458 35.88 85.621 H 0.0 **** 0.0
37449 H 45.915 34.16 85.671 H 0.0 **** 0.0
37450 H 44.28 34.632 85.149 H 0.0 **** 0.0
37451 C 15.01 60.482 45.131 C 0.0 **** 0.0
37452 H 14.721 60.017 44.189 H 0.0 **** 0.0
37453 H 14.454 61.411 45.263 H 0.0 **** 0.0
37454 H 16.078 60.696 45.118 H 0.0 **** 0.0
37455 H 14.785 59.804 45.955 H 0.0 **** 0.0
37456 C 77.816 96.916 30.634 C 0.0 **** 0.0
37457 H 77.034 97.266 29.96 H 0.0 **** 0.0
37458 H 78.735 96.754 30.071 H 0.0 **** 0.0
37459 H 77.503 95.98 31.097 H 0.0 **** 0.0
37460 H 77.99 97.664 31.407 H 0.0 **** 0.0
37461 C 70.736 44.386 40.4 C 0.0 **** 0.0
37462 H 70.818 43.381 40.814 H 0.0 **** 0.0
37463 H 69.794 44.833 40.717 H 0.0 **** 0.0
37464 H 70.768 44.335 39.312 H 0.0 **** 0.0
37465 H 71.566 44.995 40.76 H 0.0 **** 0.0
37466 C 93.432 29.168 80.103 C 0.0 **** 0.0
37467 H 93.738 30.194 80.309 H 0.0 **** 0.0
37468 H 92.785 28.815 80.906 H 0.0 **** 0.0
37469 H 94.314 28.532 80.039 H 0.0 **** 0.0
37470 H 92.89 29.134 79.158 H 0.0 **** 0.0
37471 C 62.078 47.338 71.757 C 0.0 **** 0.0
37472 H 62.914 46.719 71.432 H 0.0 **** 0.0
37473 H 61.219 47.156 71.112 H 0.0 **** 0.0
37474 H 62.36 48.389 71.7 H 0.0 **** 0.0
37475 H 61.82 47.087 72.786 H 0.0 **** 0.0
37476 C 47.196 32.838 73.113 C 0.0 **** 0.0
37477 H 47.648 32.701 74.095 H 0.0 **** 0.0
37478 H 47.972 32.799 72.347 H 0.0 **** 0.0
37479 H 46.696 33.806 73.075 H 0.0 **** 0.0
37480 H 46.469 32.047 72.934 H 0.0 **** 0.0
37481 C 84.263 91.818 21.303 C 0.0 **** 0.0
37482 H 83.634 92.208 20.503 H 0.0 **** 0.0
37483 H 83.757 90.983 21.788 H 0.0 **** 0.0
37484 H 84.45 92.605 22.033 H 0.0 **** 0.0
37485 H 85.21 91.476 20.885 H 0.0 **** 0.0
37486 C 81.901 68.301 69.009 C 0.0 **** 0.0
37487 H 81.695 67.231 68.992 H 0.0 **** 0.0
37488 H 82.249 68.588 70.002 H 0.0 **** 0.0
37489 H 80.991 68.85 68.77 H 0.0 **** 0.0
37490 H 82.67 68.534 68.272 H 0.0 **** 0.0
37491 C 52.389 96.943 15.715 C 0.0 **** 0.0
37492 H 52.072 97.543 16.568 H 0.0 **** 0.0
37493 H 52.146 95.896 15.897 H 0.0 **** 0.0
37494 H 53.466 97.048 15.578 H 0.0 **** 0.0
37495 H 51.874 97.286 14.818 H 0.0 **** 0.0
37496 C 92.315 38.607 10.528 C 0.0 **** 0.0
37497 H 93.291 38.897 10.139 H 0.0 **** 0.0
37498 H 92.405 37.664 11.067 H 0.0 **** 0.0
37499 H 91.616 38.487 9.7 H 0.0 **** 0.0
37500 H 91.949 39.379 11.204 H 0.0 **** 0.0
@<TRIPOS>BOND
1 1 2 1
2 1 3 1
3 1 4 1
4 1 5 1
5 6 7 1
6 6 8 1
7 6 9 1
8 10 6 1
9 11 12 1
10 11 13 1
11 11 14 1
12 11 15 1
13 16 17 1
14 16 18 1
15 16 19 1
16 16 20 1
17 21 22 1
18 21 23 1
19 21 24 1
20 21 25 1
21 26 27 1
22 26 28 1
23 26 29 1
24 26 30 1
25 31 32 1
26 31 33 1
27 31 34 1
28 31 35 1
29 36 37 1
30 36 38 1
31 36 39 1
32 36 40 1
33 41 42 1
34 41 43 1
35 41 44 1
36 41 45 1
37 46 47 1
38 46 48 1
39 46 49 1
40 46 50 1
41 51 54 1
42 51 55 1
43 51 52 1
44 51 53 1
45 56 57 1
46 56 58 1
47 56 59 1
48 56 60 1
49 61 62 1
50 61 63 1
51 61 64 1
52 61 65 1
53 66 67 1
54 66 68 1
55 66 69 1
56 66 70 1
57 71 72 1
58 71 73 1
59 71 74 1
60 71 75 1
61 76 77 1
62 76 78 1
63 76 79 1
64 76 80 1
65 81 82 1
66 81 83 1
67 81 84 1
68 81 85 1
69 86 87 1
70 86 88 1
71 86 89 1
72 86 90 1
73 91 92 1
74 91 93 1
75 91 94 1
76 91 95 1
77 96 97 1
78 96 98 1
79 96 99 1
80 100 96 1
81 101 102 1
82 101 103 1
83 101 104 1
84 101 105 1
85 106 107 1
86 106 108 1
87 106 109 1
88 106 110 1
89 111 112 1
90 111 113 1
91 111 114 1
92 111 115 1
93 116 117 1
94 116 118 1
95 116 119 1
96 116 120 1
97 121 122 1
98 121 123 1
99 121 124 1
100 121 125 1
101 126 127 1
102 126 128 1
103 126 129 1
104 126 130 1
105 131 132 1
106 131 133 1
107 131 134 1
108 131 135 1
109 136 138 1
110 136 139 1
111 136 140 1
112 136 137 1
113 141 142 1
114 141 143 1
115 141 144 1
116 141 145 1
117 146 147 1
118 146 148 1
119 146 149 1
120 146 150 1
121 151 152 1
122 151 153 1
123 151 154 1
124 151 155 1
125 156 157 1
126 156 158 1
127 156 159 1
128 156 160 1
129 161 162 1
130 161 163 1
131 161 164 1
132 161 165 1
133 166 167 1
134 166 168 1
135 166 169 1
136 166 170 1
137 171 172 1
138 171 173 1
139 171 174 1
140 171 175 1
141 176 180 1
142 176 177 1
143 176 178 1
144 176 179 1
145 181 182 1
146 181 183 1
147 181 184 1
148 181 185 1
149 186 187 1
150 186 188 1
151 186 189 1
152 186 190 1
153 191 192 1
154 191 193 1
155 191 194 1
156 191 195 1
157 196 197 1
158 196 198 1
159 196 199 1
160 196 200 1
161 201 202 1
162 201 203 1
163 201 204 1
164 201 205 1
165 206 207 1
166 206 208 1
167 206 209 1
168 206 210 1
169 211 212 1
170 211 213 1
171 211 214 1
172 211 215 1
173 216 217 1
174 216 218 1
175 216 219 1
176 216 220 1
177 221 222 1
178 221 223 1
179 221 224 1
180 221 225 1
181 226 227 1
182 226 228 1
183 226 229 1
184 226 230 1
185 231 232 1
186 231 233 1
187 231 234 1
188 231 235 1
189 236 237 1
190 236 238 1
191 236 239 1
192 236 240 1
193 241 242 1
194 241 243 1
195 241 244 1
196 241 245 1
197 246 247 1
198 246 248 1
199 246 249 1
200 246 250 1
201 251 252 1
202 251 253 1
203 251 254 1
204 251 255 1
205 256 257 1
206 256 258 1
207 256 259 1
208 256 260 1
209 261 262 1
210 261 263 1
211 261 264 1
212 261 265 1
213 266 267 1
214 266 268 1
215 266 269 1
216 266 270 1
217 271 272 1
218 271 273 1
219 271 274 1
220 271 275 1
221 276 277 1
222 276 278 1
223 276 279 1
224 276 280 1
225 281 282 1
226 281 283 1
227 281 284 1
228 281 285 1
229 286 287 1
230 286 288 1
231 286 289 1
232 286 290 1
233 291 292 1
234 291 293 1
235 291 294 1
236 291 295 1
237 296 297 1
238 296 298 1
239 296 299 1
240 296 300 1
241 301 302 1
242 301 303 1
243 301 304 1
244 301 305 1
245 306 307 1
246 306 308 1
247 306 309 1
248 306 310 1
249 311 312 1
250 311 313 1
251 311 314 1
252 311 315 1
253 316 317 1
254 316 318 1
255 316 319 1
256 316 320 1
257 321 322 1
258 321 323 1
259 321 324 1
260 321 325 1
261 326 327 1
262 326 328 1
263 326 329 1
264 326 330 1
265 331 332 1
266 331 333 1
267 331 334 1
268 331 335 1
269 336 337 1
270 336 338 1
271 336 339 1
272 336 340 1
273 341 342 1
274 341 343 1
275 341 344 1
276 341 345 1
277 346 347 1
278 346 348 1
279 346 349 1
280 346 350 1
281 351 352 1
282 351 353 1
283 351 354 1
284 351 355 1
285 356 357 1
286 356 358 1
287 356 359 1
288 356 360 1
289 361 362 1
290 361 363 1
291 361 364 1
292 361 365 1
293 366 367 1
294 366 368 1
295 366 369 1
296 366 370 1
297 371 372 1
298 371 373 1
299 371 374 1
300 371 375 1
301 376 377 1
302 376 378 1
303 376 379 1
304 376 380 1
305 381 382 1
306 381 383 1
307 381 384 1
308 381 385 1
309 386 390 1
310 386 387 1
311 386 388 1
312 386 389 1
313 391 392 1
314 391 393 1
315 391 394 1
316 391 395 1
317 396 397 1
318 396 398 1
319 396 399 1
320 396 400 1
321 401 402 1
322 401 403 1
323 401 404 1
324 401 405 1
325 406 407 1
326 406 408 1
327 406 409 1
328 406 410 1
329 411 412 1
330 411 413 1
331 411 414 1
332 411 415 1
333 416 417 1
334 416 418 1
335 416 419 1
336 416 420 1
337 421 422 1
338 421 423 1
339 421 424 1
340 421 425 1
341 426 427 1
342 426 428 1
343 426 429 1
344 426 430 1
345 431 432 1
346 431 433 1
347 431 434 1
348 431 435 1
349 436 437 1
350 436 438 1
351 436 439 1
352 436 440 1
353 441 442 1
354 441 443 1
355 441 444 1
356 441 445 1
357 446 447 1
358 446 448 1
359 446 449 1
360 446 450 1
361 451 452 1
362 451 453 1
363 451 454 1
364 451 455 1
365 456 457 1
366 456 458 1
367 456 459 1
368 456 460 1
369 461 462 1
370 461 463 1
371 461 464 1
372 461 465 1
373 466 467 1
374 466 468 1
375 466 469 1
376 466 470 1
377 471 472 1
378 471 473 1
379 471 474 1
380 471 475 1
381 476 477 1
382 476 478 1
383 476 479 1
384 476 480 1
385 481 482 1
386 481 483 1
387 481 484 1
388 481 485 1
389 486 487 1
390 486 488 1
391 486 489 1
392 486 490 1
393 491 492 1
394 491 493 1
395 491 494 1
396 491 495 1
397 496 497 1
398 496 498 1
399 496 499 1
400 496 500 1
401 501 502 1
402 501 503 1
403 501 504 1
404 501 505 1
405 506 507 1
406 506 508 1
407 506 509 1
408 506 510 1
409 511 512 1
410 511 513 1
411 511 514 1
412 511 515 1
413 516 517 1
414 516 518 1
415 516 519 1
416 516 520 1
417 521 522 1
418 521 523 1
419 521 524 1
420 521 525 1
421 526 527 1
422 526 528 1
423 526 529 1
424 526 530 1
425 531 532 1
426 531 533 1
427 531 534 1
428 531 535 1
429 536 537 1
430 536 538 1
431 536 539 1
432 536 540 1
433 541 542 1
434 541 543 1
435 541 544 1
436 541 545 1
437 546 547 1
438 546 548 1
439 546 549 1
440 546 550 1
441 551 552 1
442 551 553 1
443 551 554 1
444 551 555 1
445 556 558 1
446 556 559 1
447 556 560 1
448 556 557 1
449 561 562 1
450 561 563 1
451 561 564 1
452 561 565 1
453 566 567 1
454 566 568 1
455 566 569 1
456 566 570 1
457 571 572 1
458 571 573 1
459 571 574 1
460 571 575 1
461 576 577 1
462 576 578 1
463 576 579 1
464 576 580 1
465 581 582 1
466 581 583 1
467 581 584 1
468 581 585 1
469 586 587 1
470 586 588 1
471 586 589 1
472 586 590 1
473 591 592 1
474 591 593 1
475 591 594 1
476 591 595 1
477 596 600 1
478 596 597 1
479 596 598 1
480 596 599 1
481 601 602 1
482 601 603 1
483 601 604 1
484 601 605 1
485 606 607 1
486 606 608 1
487 606 609 1
488 606 610 1
489 611 612 1
490 611 613 1
491 611 614 1
492 611 615 1
493 616 617 1
494 616 618 1
495 616 619 1
496 616 620 1
497 621 622 1
498 621 623 1
499 621 624 1
500 621 625 1
501 626 627 1
502 626 628 1
503 626 629 1
504 626 630 1
505 631 632 1
506 631 633 1
507 631 634 1
508 631 635 1
509 636 637 1
510 636 638 1
511 636 639 1
512 636 640 1
513 641 642 1
514 641 643 1
515 641 644 1
516 641 645 1
517 646 647 1
518 646 648 1
519 646 649 1
520 646 650 1
521 651 652 1
522 651 653 1
523 651 654 1
524 651 655 1
525 656 657 1
526 656 658 1
527 656 659 1
528 656 660 1
529 661 662 1
530 661 663 1
531 661 664 1
532 661 665 1
533 666 667 1
534 666 668 1
535 666 669 1
536 666 670 1
537 671 672 1
538 671 673 1
539 671 674 1
540 671 675 1
541 676 677 1
542 676 678 1
543 676 679 1
544 676 680 1
545 681 682 1
546 681 683 1
547 681 684 1
548 681 685 1
549 686 687 1
550 686 688 1
551 686 689 1
552 686 690 1
553 691 692 1
554 691 693 1
555 691 694 1
556 691 695 1
557 696 697 1
558 696 698 1
559 696 699 1
560 696 700 1
561 701 702 1
562 701 703 1
563 701 704 1
564 701 705 1
565 706 707 1
566 706 708 1
567 706 709 1
568 706 710 1
569 711 712 1
570 711 713 1
571 711 714 1
572 711 715 1
573 716 717 1
574 716 718 1
575 716 719 1
576 716 720 1
577 721 722 1
578 721 723 1
579 721 724 1
580 721 725 1
581 726 727 1
582 726 728 1
583 726 729 1
584 726 730 1
585 731 732 1
586 731 733 1
587 731 734 1
588 731 735 1
589 736 737 1
590 736 738 1
591 736 739 1
592 736 740 1
593 741 742 1
594 741 743 1
595 741 744 1
596 741 745 1
597 746 747 1
598 746 748 1
599 746 749 1
600 746 750 1
601 751 752 1
602 751 753 1
603 751 754 1
604 751 755 1
605 756 757 1
606 756 758 1
607 756 759 1
608 756 760 1
609 761 762 1
610 761 763 1
611 761 764 1
612 761 765 1
613 766 767 1
614 766 768 1
615 766 769 1
616 766 770 1
617 771 772 1
618 771 773 1
619 771 774 1
620 771 775 1
621 776 777 1
622 776 778 1
623 776 779 1
624 776 780 1
625 781 782 1
626 781 783 1
627 781 784 1
628 781 785 1
629 786 787 1
630 786 788 1
631 786 789 1
632 786 790 1
633 791 792 1
634 791 793 1
635 791 794 1
636 791 795 1
637 796 797 1
638 796 798 1
639 796 799 1
640 796 800 1
641 801 802 1
642 801 803 1
643 801 804 1
644 801 805 1
645 806 810 1
646 806 807 1
647 806 808 1
648 806 809 1
649 811 812 1
650 811 813 1
651 811 814 1
652 811 815 1
653 816 817 1
654 816 818 1
655 816 819 1
656 816 820 1
657 821 822 1
658 821 823 1
659 821 824 1
660 821 825 1
661 826 827 1
662 826 828 1
663 826 829 1
664 826 830 1
665 831 832 1
666 831 833 1
667 831 834 1
668 831 835 1
669 836 837 1
670 836 838 1
671 836 839 1
672 836 840 1
673 841 842 1
674 841 843 1
675 841 844 1
676 841 845 1
677 846 847 1
678 846 848 1
679 846 849 1
680 846 850 1
681 851 852 1
682 851 853 1
683 851 854 1
684 851 855 1
685 856 857 1
686 856 858 1
687 856 859 1
688 856 860 1
689 861 862 1
690 861 863 1
691 861 864 1
692 861 865 1
693 866 868 1
694 866 869 1
695 866 867 1
696 866 870 1
697 871 872 1
698 871 873 1
699 871 874 1
700 871 875 1
701 876 877 1
702 876 878 1
703 876 879 1
704 876 880 1
705 881 882 1
706 881 883 1
707 881 884 1
708 881 885 1
709 886 887 1
710 886 888 1
711 886 889 1
712 886 890 1
713 891 894 1
714 891 895 1
715 891 892 1
716 891 893 1
717 896 897 1
718 896 898 1
719 896 899 1
720 896 900 1
721 901 902 1
722 901 903 1
723 901 904 1
724 901 905 1
725 906 907 1
726 906 908 1
727 906 909 1
728 906 910 1
729 911 912 1
730 911 913 1
731 911 914 1
732 911 915 1
733 916 917 1
734 916 918 1
735 916 919 1
736 916 920 1
737 921 922 1
738 921 923 1
739 921 924 1
740 921 925 1
741 926 927 1
742 926 928 1
743 926 929 1
744 926 930 1
745 931 932 1
746 931 933 1
747 931 934 1
748 931 935 1
749 936 937 1
750 936 938 1
751 936 939 1
752 936 940 1
753 941 942 1
754 941 943 1
755 941 944 1
756 941 945 1
757 946 947 1
758 946 948 1
759 946 949 1
760 946 950 1
761 951 952 1
762 951 953 1
763 951 954 1
764 951 955 1
765 956 957 1
766 956 958 1
767 956 959 1
768 956 960 1
769 961 962 1
770 961 963 1
771 961 964 1
772 961 965 1
773 966 967 1
774 966 968 1
775 966 969 1
776 966 970 1
777 971 972 1
778 971 973 1
779 971 974 1
780 971 975 1
781 976 977 1
782 976 978 1
783 976 979 1
784 976 980 1
785 981 982 1
786 981 983 1
787 981 984 1
788 981 985 1
789 986 987 1
790 986 988 1
791 986 989 1
792 986 990 1
793 991 992 1
794 991 993 1
795 991 994 1
796 991 995 1
797 996 997 1
798 996 998 1
799 996 999 1
800 1000 996 1
801 1001 1002 1
802 1001 1003 1
803 1001 1004 1
804 1001 1005 1
805 1006 1007 1
806 1006 1008 1
807 1006 1009 1
808 1006 1010 1
809 1011 1012 1
810 1011 1013 1
811 1011 1014 1
812 1011 1015 1
813 1016 1017 1
814 1016 1018 1
815 1016 1019 1
816 1016 1020 1
817 1021 1022 1
818 1021 1023 1
819 1021 1024 1
820 1021 1025 1
821 1026 1027 1
822 1026 1028 1
823 1026 1029 1
824 1026 1030 1
825 1031 1032 1
826 1031 1033 1
827 1031 1034 1
828 1031 1035 1
829 1036 1037 1
830 1036 1038 1
831 1036 1039 1
832 1036 1040 1
833 1041 1042 1
834 1041 1043 1
835 1041 1044 1
836 1041 1045 1
837 1046 1047 1
838 1046 1048 1
839 1046 1049 1
840 1046 1050 1
841 1051 1052 1
842 1051 1053 1
843 1051 1054 1
844 1051 1055 1
845 1056 1060 1
846 1056 1057 1
847 1056 1058 1
848 1056 1059 1
849 1061 1062 1
850 1061 1063 1
851 1061 1064 1
852 1061 1065 1
853 1066 1067 1
854 1066 1068 1
855 1066 1069 1
856 1066 1070 1
857 1071 1072 1
858 1071 1073 1
859 1071 1074 1
860 1071 1075 1
861 1076 1077 1
862 1076 1078 1
863 1076 1079 1
864 1076 1080 1
865 1081 1082 1
866 1081 1083 1
867 1081 1084 1
868 1081 1085 1
869 1086 1087 1
870 1086 1088 1
871 1086 1089 1
872 1086 1090 1
873 1091 1092 1
874 1091 1093 1
875 1091 1094 1
876 1091 1095 1
877 1096 1097 1
878 1096 1098 1
879 1096 1099 1
880 1096 1100 1
881 1101 1102 1
882 1101 1103 1
883 1101 1104 1
884 1101 1105 1
885 1106 1107 1
886 1106 1108 1
887 1106 1109 1
888 1106 1110 1
889 1111 1112 1
890 1111 1113 1
891 1111 1114 1
892 1111 1115 1
893 1116 1118 1
894 1116 1120 1
895 1116 1119 1
896 1116 1117 1
897 1121 1122 1
898 1121 1123 1
899 1121 1124 1
900 1121 1125 1
901 1126 1127 1
902 1126 1128 1
903 1126 1129 1
904 1126 1130 1
905 1131 1132 1
906 1131 1133 1
907 1131 1134 1
908 1131 1135 1
909 1136 1137 1
910 1136 1138 1
911 1136 1139 1
912 1136 1140 1
913 1141 1142 1
914 1141 1143 1
915 1141 1144 1
916 1141 1145 1
917 1146 1147 1
918 1146 1148 1
919 1146 1149 1
920 1146 1150 1
921 1151 1152 1
922 1151 1153 1
923 1151 1154 1
924 1151 1155 1
925 1156 1157 1
926 1156 1158 1
927 1156 1159 1
928 1156 1160 1
929 1161 1162 1
930 1161 1163 1
931 1161 1164 1
932 1161 1165 1
933 1166 1167 1
934 1166 1168 1
935 1166 1169 1
936 1166 1170 1
937 1171 1172 1
938 1171 1173 1
939 1171 1174 1
940 1171 1175 1
941 1176 1177 1
942 1176 1178 1
943 1176 1179 1
944 1176 1180 1
945 1181 1182 1
946 1181 1183 1
947 1181 1184 1
948 1181 1185 1
949 1186 1187 1
950 1186 1188 1
951 1186 1189 1
952 1186 1190 1
953 1191 1192 1
954 1191 1193 1
955 1191 1194 1
956 1191 1195 1
957 1196 1197 1
958 1196 1198 1
959 1196 1199 1
960 1196 1200 1
961 1201 1202 1
962 1201 1203 1
963 1201 1204 1
964 1201 1205 1
965 1206 1207 1
966 1206 1208 1
967 1206 1209 1
968 1206 1210 1
969 1211 1212 1
970 1211 1213 1
971 1211 1214 1
972 1211 1215 1
973 1216 1217 1
974 1216 1218 1
975 1216 1219 1
976 1216 1220 1
977 1221 1222 1
978 1221 1223 1
979 1221 1224 1
980 1221 1225 1
981 1226 1230 1
982 1226 1227 1
983 1226 1228 1
984 1226 1229 1
985 1231 1232 1
986 1231 1233 1
987 1231 1234 1
988 1231 1235 1
989 1236 1237 1
990 1236 1238 1
991 1236 1239 1
992 1236 1240 1
993 1241 1242 1
994 1241 1243 1
995 1241 1244 1
996 1241 1245 1
997 1246 1247 1
998 1246 1248 1
999 1246 1249 1
1000 1246 1250 1
1001 1251 1252 1
1002 1251 1253 1
1003 1251 1254 1
1004 1251 1255 1
1005 1256 1257 1
1006 1256 1258 1
1007 1256 1259 1
1008 1256 1260 1
1009 1261 1262 1
1010 1261 1263 1
1011 1261 1264 1
1012 1261 1265 1
1013 1266 1267 1
1014 1266 1268 1
1015 1266 1269 1
1016 1266 1270 1
1017 1271 1272 1
1018 1271 1273 1
1019 1271 1274 1
1020 1271 1275 1
1021 1276 1277 1
1022 1276 1278 1
1023 1276 1279 1
1024 1276 1280 1
1025 1281 1282 1
1026 1281 1283 1
1027 1281 1284 1
1028 1281 1285 1
1029 1286 1287 1
1030 1286 1288 1
1031 1286 1289 1
1032 1286 1290 1
1033 1291 1292 1
1034 1291 1293 1
1035 1291 1294 1
1036 1291 1295 1
1037 1296 1297 1
1038 1296 1298 1
1039 1296 1299 1
1040 1296 1300 1
1041 1301 1302 1
1042 1301 1303 1
1043 1301 1304 1
1044 1301 1305 1
1045 1306 1307 1
1046 1306 1308 1
1047 1306 1309 1
1048 1306 1310 1
1049 1311 1314 1
1050 1311 1315 1
1051 1311 1312 1
1052 1311 1313 1
1053 1316 1317 1
1054 1316 1318 1
1055 1316 1319 1
1056 1316 1320 1
1057 1321 1322 1
1058 1321 1323 1
1059 1321 1324 1
1060 1321 1325 1
1061 1326 1327 1
1062 1326 1328 1
1063 1326 1329 1
1064 1326 1330 1
1065 1331 1332 1
1066 1331 1333 1
1067 1331 1334 1
1068 1331 1335 1
1069 1336 1337 1
1070 1336 1338 1
1071 1336 1339 1
1072 1336 1340 1
1073 1341 1342 1
1074 1341 1343 1
1075 1341 1344 1
1076 1341 1345 1
1077 1346 1347 1
1078 1346 1348 1
1079 1346 1349 1
1080 1346 1350 1
1081 1351 1352 1
1082 1351 1353 1
1083 1351 1354 1
1084 1351 1355 1
1085 1356 1357 1
1086 1356 1358 1
1087 1356 1359 1
1088 1356 1360 1
1089 1361 1362 1
1090 1361 1363 1
1091 1361 1364 1
1092 1361 1365 1
1093 1366 1367 1
1094 1366 1368 1
1095 1366 1369 1
1096 1366 1370 1
1097 1371 1372 1
1098 1371 1373 1
1099 1371 1374 1
1100 1371 1375 1
1101 1376 1377 1
1102 1376 1378 1
1103 1376 1379 1
1104 1376 1380 1
1105 1381 1382 1
1106 1381 1383 1
1107 1381 1384 1
1108 1381 1385 1
1109 1386 1387 1
1110 1386 1388 1
1111 1386 1389 1
1112 1386 1390 1
1113 1391 1392 1
1114 1391 1393 1
1115 1391 1394 1
1116 1391 1395 1
1117 1396 1398 1
1118 1396 1399 1
1119 1396 1400 1
1120 1396 1397 1
1121 1401 1402 1
1122 1401 1403 1
1123 1401 1404 1
1124 1401 1405 1
1125 1406 1407 1
1126 1406 1408 1
1127 1406 1409 1
1128 1406 1410 1
1129 1411 1412 1
1130 1411 1413 1
1131 1411 1414 1
1132 1411 1415 1
1133 1416 1417 1
1134 1416 1418 1
1135 1416 1419 1
1136 1416 1420 1
1137 1421 1422 1
1138 1421 1423 1
1139 1421 1424 1
1140 1421 1425 1
1141 1426 1427 1
1142 1426 1428 1
1143 1426 1429 1
1144 1426 1430 1
1145 1431 1432 1
1146 1431 1433 1
1147 1431 1434 1
1148 1431 1435 1
1149 1436 1440 1
1150 1436 1437 1
1151 1436 1438 1
1152 1436 1439 1
1153 1441 1442 1
1154 1441 1443 1
1155 1441 1444 1
1156 1441 1445 1
1157 1446 1447 1
1158 1446 1448 1
1159 1446 1449 1
1160 1446 1450 1
1161 1451 1452 1
1162 1451 1453 1
1163 1451 1454 1
1164 1451 1455 1
1165 1456 1457 1
1166 1456 1458 1
1167 1456 1459 1
1168 1456 1460 1
1169 1461 1462 1
1170 1461 1463 1
1171 1461 1464 1
1172 1461 1465 1
1173 1466 1467 1
1174 1466 1468 1
1175 1466 1469 1
1176 1466 1470 1
1177 1471 1472 1
1178 1471 1473 1
1179 1471 1474 1
1180 1471 1475 1
1181 1476 1477 1
1182 1476 1478 1
1183 1476 1479 1
1184 1476 1480 1
1185 1481 1482 1
1186 1481 1483 1
1187 1481 1484 1
1188 1481 1485 1
1189 1486 1487 1
1190 1486 1488 1
1191 1486 1489 1
1192 1486 1490 1
1193 1491 1492 1
1194 1491 1493 1
1195 1491 1494 1
1196 1491 1495 1
1197 1496 1497 1
1198 1496 1498 1
1199 1496 1499 1
1200 1496 1500 1
1201 1501 1502 1
1202 1501 1503 1
1203 1501 1504 1
1204 1501 1505 1
1205 1506 1507 1
1206 1506 1508 1
1207 1506 1509 1
1208 1506 1510 1
1209 1511 1512 1
1210 1511 1513 1
1211 1511 1514 1
1212 1511 1515 1
1213 1516 1517 1
1214 1516 1518 1
1215 1516 1519 1
1216 1516 1520 1
1217 1521 1522 1
1218 1521 1523 1
1219 1521 1524 1
1220 1521 1525 1
1221 1526 1527 1
1222 1526 1528 1
1223 1526 1529 1
1224 1526 1530 1
1225 1531 1532 1
1226 1531 1533 1
1227 1531 1534 1
1228 1531 1535 1
1229 1536 1537 1
1230 1536 1538 1
1231 1536 1539 1
1232 1536 1540 1
1233 1541 1542 1
1234 1541 1543 1
1235 1541 1544 1
1236 1541 1545 1
1237 1546 1547 1
1238 1546 1548 1
1239 1546 1549 1
1240 1546 1550 1
1241 1551 1553 1
1242 1551 1554 1
1243 1551 1555 1
1244 1551 1552 1
1245 1556 1557 1
1246 1556 1558 1
1247 1556 1559 1
1248 1556 1560 1
1249 1561 1562 1
1250 1561 1563 1
1251 1561 1564 1
1252 1561 1565 1
1253 1566 1567 1
1254 1566 1568 1
1255 1566 1569 1
1256 1566 1570 1
1257 1571 1572 1
1258 1571 1573 1
1259 1571 1574 1
1260 1571 1575 1
1261 1576 1577 1
1262 1576 1578 1
1263 1576 1579 1
1264 1576 1580 1
1265 1581 1582 1
1266 1581 1583 1
1267 1581 1584 1
1268 1581 1585 1
1269 1586 1587 1
1270 1586 1588 1
1271 1586 1589 1
1272 1586 1590 1
1273 1591 1592 1
1274 1591 1593 1
1275 1591 1594 1
1276 1591 1595 1
1277 1596 1597 1
1278 1596 1598 1
1279 1596 1599 1
1280 1596 1600 1
1281 1601 1602 1
1282 1601 1603 1
1283 1601 1604 1
1284 1601 1605 1
1285 1606 1607 1
1286 1606 1608 1
1287 1606 1609 1
1288 1606 1610 1
1289 1611 1612 1
1290 1611 1613 1
1291 1611 1614 1
1292 1611 1615 1
1293 1616 1617 1
1294 1616 1618 1
1295 1616 1619 1
1296 1616 1620 1
1297 1621 1622 1
1298 1621 1623 1
1299 1621 1624 1
1300 1621 1625 1
1301 1626 1627 1
1302 1626 1628 1
1303 1626 1629 1
1304 1626 1630 1
1305 1631 1632 1
1306 1631 1633 1
1307 1631 1634 1
1308 1631 1635 1
1309 1636 1637 1
1310 1636 1638 1
1311 1636 1639 1
1312 1636 1640 1
1313 1641 1642 1
1314 1641 1643 1
1315 1641 1644 1
1316 1641 1645 1
1317 1646 1650 1
1318 1646 1647 1
1319 1646 1648 1
1320 1646 1649 1
1321 1651 1652 1
1322 1651 1653 1
1323 1651 1654 1
1324 1651 1655 1
1325 1656 1657 1
1326 1656 1658 1
1327 1656 1659 1
1328 1656 1660 1
1329 1661 1662 1
1330 1661 1663 1
1331 1661 1664 1
1332 1661 1665 1
1333 1666 1667 1
1334 1666 1668 1
1335 1666 1669 1
1336 1666 1670 1
1337 1671 1672 1
1338 1671 1673 1
1339 1671 1674 1
1340 1671 1675 1
1341 1676 1677 1
1342 1676 1678 1
1343 1676 1679 1
1344 1676 1680 1
1345 1681 1682 1
1346 1681 1683 1
1347 1681 1684 1
1348 1681 1685 1
1349 1686 1687 1
1350 1686 1688 1
1351 1686 1689 1
1352 1686 1690 1
1353 1691 1692 1
1354 1691 1693 1
1355 1691 1694 1
1356 1691 1695 1
1357 1696 1697 1
1358 1696 1698 1
1359 1696 1699 1
1360 1696 1700 1
1361 1701 1702 1
1362 1701 1703 1
1363 1701 1704 1
1364 1701 1705 1
1365 1706 1707 1
1366 1706 1708 1
1367 1706 1709 1
1368 1706 1710 1
1369 1711 1712 1
1370 1711 1713 1
1371 1711 1714 1
1372 1711 1715 1
1373 1716 1717 1
1374 1716 1718 1
1375 1716 1719 1
1376 1716 1720 1
1377 1721 1722 1
1378 1721 1723 1
1379 1721 1724 1
1380 1721 1725 1
1381 1726 1727 1
1382 1726 1728 1
1383 1726 1729 1
1384 1726 1730 1
1385 1731 1734 1
1386 1731 1735 1
1387 1731 1732 1
1388 1731 1733 1
1389 1736 1737 1
1390 1736 1738 1
1391 1736 1739 1
1392 1736 1740 1
1393 1741 1742 1
1394 1741 1743 1
1395 1741 1744 1
1396 1741 1745 1
1397 1746 1747 1
1398 1746 1748 1
1399 1746 1749 1
1400 1746 1750 1
1401 1751 1752 1
1402 1751 1753 1
1403 1751 1754 1
1404 1751 1755 1
1405 1756 1757 1
1406 1756 1758 1
1407 1756 1759 1
1408 1756 1760 1
1409 1761 1762 1
1410 1761 1763 1
1411 1761 1764 1
1412 1761 1765 1
1413 1766 1767 1
1414 1766 1768 1
1415 1766 1769 1
1416 1766 1770 1
1417 1771 1772 1
1418 1771 1773 1
1419 1771 1774 1
1420 1771 1775 1
1421 1776 1777 1
1422 1776 1778 1
1423 1776 1779 1
1424 1776 1780 1
1425 1781 1782 1
1426 1781 1783 1
1427 1781 1784 1
1428 1781 1785 1
1429 1786 1787 1
1430 1786 1788 1
1431 1786 1789 1
1432 1786 1790 1
1433 1791 1792 1
1434 1791 1793 1
1435 1791 1794 1
1436 1791 1795 1
1437 1796 1797 1
1438 1796 1798 1
1439 1796 1799 1
1440 1796 1800 1
1441 1801 1802 1
1442 1801 1803 1
1443 1801 1804 1
1444 1801 1805 1
1445 1806 1807 1
1446 1806 1808 1
1447 1806 1809 1
1448 1806 1810 1
1449 1811 1812 1
1450 1811 1813 1
1451 1811 1814 1
1452 1811 1815 1
1453 1816 1818 1
1454 1816 1819 1
1455 1816 1820 1
1456 1816 1817 1
1457 1821 1822 1
1458 1821 1823 1
1459 1821 1824 1
1460 1821 1825 1
1461 1826 1827 1
1462 1826 1828 1
1463 1826 1829 1
1464 1826 1830 1
1465 1831 1832 1
1466 1831 1833 1
1467 1831 1834 1
1468 1831 1835 1
1469 1836 1837 1
1470 1836 1838 1
1471 1836 1839 1
1472 1836 1840 1
1473 1841 1842 1
1474 1841 1843 1
1475 1841 1844 1
1476 1841 1845 1
1477 1846 1847 1
1478 1846 1848 1
1479 1846 1849 1
1480 1846 1850 1
1481 1851 1852 1
1482 1851 1853 1
1483 1851 1854 1
1484 1851 1855 1
1485 1856 1857 1
1486 1856 1858 1
1487 1856 1859 1
1488 1856 1860 1
1489 1861 1862 1
1490 1861 1863 1
1491 1861 1864 1
1492 1861 1865 1
1493 1866 1867 1
1494 1866 1868 1
1495 1866 1869 1
1496 1866 1870 1
1497 1871 1872 1
1498 1871 1873 1
1499 1871 1874 1
1500 1871 1875 1
1501 1876 1877 1
1502 1876 1878 1
1503 1876 1879 1
1504 1876 1880 1
1505 1881 1882 1
1506 1881 1883 1
1507 1881 1884 1
1508 1881 1885 1
1509 1886 1887 1
1510 1886 1888 1
1511 1886 1889 1
1512 1886 1890 1
1513 1891 1892 1
1514 1891 1893 1
1515 1891 1894 1
1516 1891 1895 1
1517 1896 1897 1
1518 1896 1898 1
1519 1896 1899 1
1520 1896 1900 1
1521 1901 1902 1
1522 1901 1903 1
1523 1901 1904 1
1524 1901 1905 1
1525 1906 1907 1
1526 1906 1908 1
1527 1906 1909 1
1528 1906 1910 1
1529 1911 1912 1
1530 1911 1913 1
1531 1911 1914 1
1532 1911 1915 1
1533 1916 1917 1
1534 1916 1918 1
1535 1916 1919 1
1536 1916 1920 1
1537 1921 1922 1
1538 1921 1923 1
1539 1921 1924 1
1540 1921 1925 1
1541 1926 1927 1
1542 1926 1928 1
1543 1926 1929 1
1544 1926 1930 1
1545 1931 1932 1
1546 1931 1933 1
1547 1931 1934 1
1548 1931 1935 1
1549 1936 1937 1
1550 1936 1938 1
1551 1936 1939 1
1552 1936 1940 1
1553 1941 1942 1
1554 1941 1943 1
1555 1941 1944 1
1556 1941 1945 1
1557 1946 1947 1
1558 1946 1948 1
1559 1946 1949 1
1560 1946 1950 1
1561 1951 1952 1
1562 1951 1953 1
1563 1951 1954 1
1564 1951 1955 1
1565 1956 1957 1
1566 1956 1958 1
1567 1956 1959 1
1568 1956 1960 1
1569 1961 1962 1
1570 1961 1963 1
1571 1961 1964 1
1572 1961 1965 1
1573 1966 1967 1
1574 1966 1968 1
1575 1966 1969 1
1576 1966 1970 1
1577 1971 1972 1
1578 1971 1973 1
1579 1971 1974 1
1580 1971 1975 1
1581 1976 1977 1
1582 1976 1978 1
1583 1976 1979 1
1584 1976 1980 1
1585 1981 1982 1
1586 1981 1983 1
1587 1981 1984 1
1588 1981 1985 1
1589 1986 1987 1
1590 1986 1988 1
1591 1986 1989 1
1592 1986 1990 1
1593 1991 1992 1
1594 1991 1993 1
1595 1991 1994 1
1596 1991 1995 1
1597 1996 1997 1
1598 1996 1998 1
1599 1996 1999 1
1600 1996 2000 1
1601 2001 2002 1
1602 2001 2003 1
1603 2001 2004 1
1604 2001 2005 1
1605 2006 2007 1
1606 2006 2008 1
1607 2006 2009 1
1608 2006 2010 1
1609 2011 2012 1
1610 2011 2013 1
1611 2011 2014 1
1612 2011 2015 1
1613 2016 2017 1
1614 2016 2018 1
1615 2016 2019 1
1616 2016 2020 1
1617 2021 2022 1
1618 2021 2023 1
1619 2021 2024 1
1620 2021 2025 1
1621 2026 2027 1
1622 2026 2028 1
1623 2026 2029 1
1624 2026 2030 1
1625 2031 2032 1
1626 2031 2033 1
1627 2031 2034 1
1628 2031 2035 1
1629 2036 2037 1
1630 2036 2038 1
1631 2036 2039 1
1632 2036 2040 1
1633 2041 2042 1
1634 2041 2043 1
1635 2041 2044 1
1636 2041 2045 1
1637 2046 2047 1
1638 2046 2048 1
1639 2046 2049 1
1640 2046 2050 1
1641 2051 2052 1
1642 2051 2053 1
1643 2051 2054 1
1644 2051 2055 1
1645 2056 2057 1
1646 2056 2058 1
1647 2056 2059 1
1648 2056 2060 1
1649 2061 2062 1
1650 2061 2063 1
1651 2061 2064 1
1652 2061 2065 1
1653 2066 2070 1
1654 2066 2067 1
1655 2066 2068 1
1656 2066 2069 1
1657 2071 2072 1
1658 2071 2073 1
1659 2071 2074 1
1660 2071 2075 1
1661 2076 2080 1
1662 2076 2077 1
1663 2076 2078 1
1664 2076 2079 1
1665 2081 2082 1
1666 2081 2083 1
1667 2081 2084 1
1668 2081 2085 1
1669 2086 2087 1
1670 2086 2088 1
1671 2086 2089 1
1672 2086 2090 1
1673 2091 2092 1
1674 2091 2093 1
1675 2091 2094 1
1676 2091 2095 1
1677 2096 2097 1
1678 2096 2098 1
1679 2096 2099 1
1680 2096 2100 1
1681 2101 2102 1
1682 2101 2103 1
1683 2101 2104 1
1684 2101 2105 1
1685 2106 2107 1
1686 2106 2108 1
1687 2106 2109 1
1688 2106 2110 1
1689 2111 2112 1
1690 2111 2113 1
1691 2111 2114 1
1692 2111 2115 1
1693 2116 2117 1
1694 2116 2118 1
1695 2116 2119 1
1696 2116 2120 1
1697 2121 2122 1
1698 2121 2123 1
1699 2121 2124 1
1700 2121 2125 1
1701 2126 2127 1
1702 2126 2128 1
1703 2126 2129 1
1704 2126 2130 1
1705 2131 2132 1
1706 2131 2133 1
1707 2131 2134 1
1708 2131 2135 1
1709 2136 2137 1
1710 2136 2138 1
1711 2136 2139 1
1712 2136 2140 1
1713 2141 2142 1
1714 2141 2143 1
1715 2141 2144 1
1716 2141 2145 1
1717 2146 2147 1
1718 2146 2148 1
1719 2146 2149 1
1720 2146 2150 1
1721 2151 2154 1
1722 2151 2155 1
1723 2151 2152 1
1724 2151 2153 1
1725 2156 2157 1
1726 2156 2158 1
1727 2156 2159 1
1728 2156 2160 1
1729 2161 2162 1
1730 2161 2163 1
1731 2161 2164 1
1732 2161 2165 1
1733 2166 2167 1
1734 2166 2168 1
1735 2166 2169 1
1736 2166 2170 1
1737 2171 2172 1
1738 2171 2173 1
1739 2171 2174 1
1740 2171 2175 1
1741 2176 2177 1
1742 2176 2178 1
1743 2176 2179 1
1744 2176 2180 1
1745 2181 2182 1
1746 2181 2183 1
1747 2181 2184 1
1748 2181 2185 1
1749 2186 2187 1
1750 2186 2188 1
1751 2186 2189 1
1752 2186 2190 1
1753 2191 2192 1
1754 2191 2193 1
1755 2191 2194 1
1756 2191 2195 1
1757 2196 2197 1
1758 2196 2198 1
1759 2196 2199 1
1760 2196 2200 1
1761 2201 2202 1
1762 2201 2203 1
1763 2201 2204 1
1764 2201 2205 1
1765 2206 2207 1
1766 2206 2208 1
1767 2206 2209 1
1768 2206 2210 1
1769 2211 2212 1
1770 2211 2213 1
1771 2211 2214 1
1772 2211 2215 1
1773 2216 2217 1
1774 2216 2218 1
1775 2216 2219 1
1776 2216 2220 1
1777 2221 2222 1
1778 2221 2223 1
1779 2221 2224 1
1780 2221 2225 1
1781 2226 2227 1
1782 2226 2228 1
1783 2226 2229 1
1784 2226 2230 1
1785 2231 2232 1
1786 2231 2233 1
1787 2231 2234 1
1788 2231 2235 1
1789 2236 2238 1
1790 2236 2239 1
1791 2236 2240 1
1792 2236 2237 1
1793 2241 2242 1
1794 2241 2243 1
1795 2241 2244 1
1796 2241 2245 1
1797 2246 2247 1
1798 2246 2248 1
1799 2246 2249 1
1800 2246 2250 1
1801 2251 2252 1
1802 2251 2253 1
1803 2251 2254 1
1804 2251 2255 1
1805 2256 2257 1
1806 2256 2258 1
1807 2256 2259 1
1808 2256 2260 1
1809 2261 2262 1
1810 2261 2263 1
1811 2261 2264 1
1812 2261 2265 1
1813 2266 2267 1
1814 2266 2268 1
1815 2266 2269 1
1816 2266 2270 1
1817 2271 2272 1
1818 2271 2273 1
1819 2271 2274 1
1820 2271 2275 1
1821 2276 2277 1
1822 2276 2278 1
1823 2276 2279 1
1824 2276 2280 1
1825 2281 2282 1
1826 2281 2283 1
1827 2281 2284 1
1828 2281 2285 1
1829 2286 2287 1
1830 2286 2288 1
1831 2286 2289 1
1832 2286 2290 1
1833 2291 2292 1
1834 2291 2293 1
1835 2291 2294 1
1836 2291 2295 1
1837 2296 2297 1
1838 2296 2298 1
1839 2296 2299 1
1840 2296 2300 1
1841 2301 2302 1
1842 2301 2303 1
1843 2301 2304 1
1844 2301 2305 1
1845 2306 2307 1
1846 2306 2308 1
1847 2306 2309 1
1848 2306 2310 1
1849 2311 2312 1
1850 2311 2313 1
1851 2311 2314 1
1852 2311 2315 1
1853 2316 2317 1
1854 2316 2318 1
1855 2316 2319 1
1856 2316 2320 1
1857 2321 2322 1
1858 2321 2323 1
1859 2321 2324 1
1860 2321 2325 1
1861 2326 2327 1
1862 2326 2328 1
1863 2326 2329 1
1864 2326 2330 1
1865 2331 2332 1
1866 2331 2333 1
1867 2331 2334 1
1868 2331 2335 1
1869 2336 2337 1
1870 2336 2338 1
1871 2336 2339 1
1872 2336 2340 1
1873 2341 2342 1
1874 2341 2343 1
1875 2341 2344 1
1876 2341 2345 1
1877 2346 2347 1
1878 2346 2348 1
1879 2346 2349 1
1880 2346 2350 1
1881 2351 2352 1
1882 2351 2353 1
1883 2351 2354 1
1884 2351 2355 1
1885 2356 2357 1
1886 2356 2358 1
1887 2356 2359 1
1888 2356 2360 1
1889 2361 2364 1
1890 2361 2365 1
1891 2361 2362 1
1892 2361 2363 1
1893 2366 2367 1
1894 2366 2368 1
1895 2366 2369 1
1896 2366 2370 1
1897 2371 2372 1
1898 2371 2373 1
1899 2371 2374 1
1900 2371 2375 1
1901 2376 2377 1
1902 2376 2378 1
1903 2376 2379 1
1904 2376 2380 1
1905 2381 2382 1
1906 2381 2383 1
1907 2381 2384 1
1908 2381 2385 1
1909 2386 2387 1
1910 2386 2388 1
1911 2386 2389 1
1912 2386 2390 1
1913 2391 2392 1
1914 2391 2393 1
1915 2391 2394 1
1916 2391 2395 1
1917 2396 2397 1
1918 2396 2398 1
1919 2396 2399 1
1920 2396 2400 1
1921 2401 2402 1
1922 2401 2403 1
1923 2401 2404 1
1924 2401 2405 1
1925 2406 2407 1
1926 2406 2408 1
1927 2406 2409 1
1928 2406 2410 1
1929 2411 2412 1
1930 2411 2413 1
1931 2411 2414 1
1932 2411 2415 1
1933 2416 2417 1
1934 2416 2418 1
1935 2416 2419 1
1936 2416 2420 1
1937 2421 2422 1
1938 2421 2423 1
1939 2421 2424 1
1940 2421 2425 1
1941 2426 2427 1
1942 2426 2428 1
1943 2426 2429 1
1944 2426 2430 1
1945 2431 2432 1
1946 2431 2433 1
1947 2431 2434 1
1948 2431 2435 1
1949 2436 2437 1
1950 2436 2438 1
1951 2436 2439 1
1952 2436 2440 1
1953 2441 2442 1
1954 2441 2443 1
1955 2441 2444 1
1956 2441 2445 1
1957 2446 2447 1
1958 2446 2448 1
1959 2446 2449 1
1960 2446 2450 1
1961 2451 2453 1
1962 2451 2454 1
1963 2451 2455 1
1964 2451 2452 1
1965 2456 2457 1
1966 2456 2458 1
1967 2456 2459 1
1968 2456 2460 1
1969 2461 2462 1
1970 2461 2463 1
1971 2461 2464 1
1972 2461 2465 1
1973 2466 2467 1
1974 2466 2468 1
1975 2466 2469 1
1976 2466 2470 1
1977 2471 2472 1
1978 2471 2473 1
1979 2471 2474 1
1980 2471 2475 1
1981 2476 2477 1
1982 2476 2478 1
1983 2476 2479 1
1984 2476 2480 1
1985 2481 2482 1
1986 2481 2483 1
1987 2481 2484 1
1988 2481 2485 1
1989 2486 2487 1
1990 2486 2488 1
1991 2486 2489 1
1992 2486 2490 1
1993 2491 2492 1
1994 2491 2493 1
1995 2491 2494 1
1996 2491 2495 1
1997 2496 2497 1
1998 2496 2498 1
1999 2496 2499 1
2000 2496 2500 1
2001 2501 2502 1
2002 2501 2503 1
2003 2501 2504 1
2004 2501 2505 1
2005 2506 2507 1
2006 2506 2508 1
2007 2506 2509 1
2008 2506 2510 1
2009 2511 2512 1
2010 2511 2513 1
2011 2511 2514 1
2012 2511 2515 1
2013 2516 2517 1
2014 2516 2518 1
2015 2516 2519 1
2016 2516 2520 1
2017 2521 2522 1
2018 2521 2523 1
2019 2521 2524 1
2020 2521 2525 1
2021 2526 2527 1
2022 2526 2528 1
2023 2526 2529 1
2024 2526 2530 1
2025 2531 2532 1
2026 2531 2533 1
2027 2531 2534 1
2028 2531 2535 1
2029 2536 2537 1
2030 2536 2538 1
2031 2536 2539 1
2032 2536 2540 1
2033 2541 2542 1
2034 2541 2543 1
2035 2541 2544 1
2036 2541 2545 1
2037 2546 2547 1
2038 2546 2548 1
2039 2546 2549 1
2040 2546 2550 1
2041 2551 2552 1
2042 2551 2553 1
2043 2551 2554 1
2044 2551 2555 1
2045 2556 2557 1
2046 2556 2558 1
2047 2556 2559 1
2048 2556 2560 1
2049 2561 2562 1
2050 2561 2563 1
2051 2561 2564 1
2052 2561 2565 1
2053 2566 2567 1
2054 2566 2568 1
2055 2566 2569 1
2056 2566 2570 1
2057 2571 2572 1
2058 2571 2573 1
2059 2571 2574 1
2060 2571 2575 1
2061 2576 2577 1
2062 2576 2578 1
2063 2576 2579 1
2064 2576 2580 1
2065 2581 2582 1
2066 2581 2583 1
2067 2581 2584 1
2068 2581 2585 1
2069 2586 2587 1
2070 2586 2588 1
2071 2586 2589 1
2072 2586 2590 1
2073 2591 2592 1
2074 2591 2593 1
2075 2591 2594 1
2076 2591 2595 1
2077 2596 2597 1
2078 2596 2598 1
2079 2596 2599 1
2080 2596 2600 1
2081 2601 2602 1
2082 2601 2603 1
2083 2601 2604 1
2084 2601 2605 1
2085 2606 2607 1
2086 2606 2608 1
2087 2606 2609 1
2088 2606 2610 1
2089 2611 2612 1
2090 2611 2613 1
2091 2611 2614 1
2092 2611 2615 1
2093 2616 2617 1
2094 2616 2618 1
2095 2616 2619 1
2096 2616 2620 1
2097 2621 2622 1
2098 2621 2623 1
2099 2621 2624 1
2100 2621 2625 1
2101 2626 2627 1
2102 2626 2628 1
2103 2626 2629 1
2104 2626 2630 1
2105 2631 2632 1
2106 2631 2633 1
2107 2631 2634 1
2108 2631 2635 1
2109 2636 2637 1
2110 2636 2638 1
2111 2636 2639 1
2112 2636 2640 1
2113 2641 2642 1
2114 2641 2643 1
2115 2641 2644 1
2116 2641 2645 1
2117 2646 2647 1
2118 2646 2648 1
2119 2646 2649 1
2120 2646 2650 1
2121 2651 2652 1
2122 2651 2653 1
2123 2651 2654 1
2124 2651 2655 1
2125 2656 2658 1
2126 2656 2659 1
2127 2656 2660 1
2128 2656 2657 1
2129 2661 2662 1
2130 2661 2663 1
2131 2661 2664 1
2132 2661 2665 1
2133 2666 2667 1
2134 2666 2668 1
2135 2666 2669 1
2136 2666 2670 1
2137 2671 2672 1
2138 2671 2673 1
2139 2671 2674 1
2140 2671 2675 1
2141 2676 2677 1
2142 2676 2678 1
2143 2676 2679 1
2144 2676 2680 1
2145 2681 2682 1
2146 2681 2683 1
2147 2681 2684 1
2148 2681 2685 1
2149 2686 2687 1
2150 2686 2688 1
2151 2686 2689 1
2152 2686 2690 1
2153 2691 2692 1
2154 2691 2693 1
2155 2691 2694 1
2156 2691 2695 1
2157 2696 2697 1
2158 2696 2698 1
2159 2696 2699 1
2160 2696 2700 1
2161 2701 2702 1
2162 2701 2703 1
2163 2701 2704 1
2164 2701 2705 1
2165 2706 2707 1
2166 2706 2708 1
2167 2706 2709 1
2168 2706 2710 1
2169 2711 2712 1
2170 2711 2713 1
2171 2711 2714 1
2172 2711 2715 1
2173 2716 2717 1
2174 2716 2718 1
2175 2716 2719 1
2176 2716 2720 1
2177 2721 2722 1
2178 2721 2723 1
2179 2721 2724 1
2180 2721 2725 1
2181 2726 2727 1
2182 2726 2728 1
2183 2726 2729 1
2184 2726 2730 1
2185 2731 2732 1
2186 2731 2733 1
2187 2731 2734 1
2188 2731 2735 1
2189 2736 2737 1
2190 2736 2738 1
2191 2736 2739 1
2192 2736 2740 1
2193 2741 2742 1
2194 2741 2743 1
2195 2741 2744 1
2196 2741 2745 1
2197 2746 2747 1
2198 2746 2748 1
2199 2746 2749 1
2200 2746 2750 1
2201 2751 2752 1
2202 2751 2753 1
2203 2751 2754 1
2204 2751 2755 1
2205 2756 2757 1
2206 2756 2758 1
2207 2756 2759 1
2208 2756 2760 1
2209 2761 2762 1
2210 2761 2763 1
2211 2761 2764 1
2212 2761 2765 1
2213 2766 2767 1
2214 2766 2768 1
2215 2766 2769 1
2216 2766 2770 1
2217 2771 2772 1
2218 2771 2773 1
2219 2771 2774 1
2220 2771 2775 1
2221 2776 2777 1
2222 2776 2778 1
2223 2776 2779 1
2224 2776 2780 1
2225 2781 2782 1
2226 2781 2783 1
2227 2781 2784 1
2228 2781 2785 1
2229 2786 2787 1
2230 2786 2788 1
2231 2786 2789 1
2232 2786 2790 1
2233 2791 2792 1
2234 2791 2793 1
2235 2791 2794 1
2236 2791 2795 1
2237 2796 2797 1
2238 2796 2798 1
2239 2796 2799 1
2240 2796 2800 1
2241 2801 2802 1
2242 2801 2803 1
2243 2801 2804 1
2244 2801 2805 1
2245 2806 2807 1
2246 2806 2808 1
2247 2806 2809 1
2248 2806 2810 1
2249 2811 2812 1
2250 2811 2813 1
2251 2811 2814 1
2252 2811 2815 1
2253 2816 2817 1
2254 2816 2818 1
2255 2816 2819 1
2256 2816 2820 1
2257 2821 2822 1
2258 2821 2823 1
2259 2821 2824 1
2260 2821 2825 1
2261 2826 2827 1
2262 2826 2828 1
2263 2826 2829 1
2264 2826 2830 1
2265 2831 2832 1
2266 2831 2833 1
2267 2831 2834 1
2268 2831 2835 1
2269 2836 2837 1
2270 2836 2838 1
2271 2836 2839 1
2272 2836 2840 1
2273 2841 2842 1
2274 2841 2843 1
2275 2841 2844 1
2276 2841 2845 1
2277 2846 2847 1
2278 2846 2848 1
2279 2846 2849 1
2280 2846 2850 1
2281 2851 2852 1
2282 2851 2853 1
2283 2851 2854 1
2284 2851 2855 1
2285 2856 2857 1
2286 2856 2858 1
2287 2856 2859 1
2288 2856 2860 1
2289 2861 2862 1
2290 2861 2863 1
2291 2861 2864 1
2292 2861 2865 1
2293 2866 2867 1
2294 2866 2868 1
2295 2866 2869 1
2296 2866 2870 1
2297 2871 2872 1
2298 2871 2873 1
2299 2871 2874 1
2300 2871 2875 1
2301 2876 2877 1
2302 2876 2878 1
2303 2876 2879 1
2304 2876 2880 1
2305 2881 2882 1
2306 2881 2883 1
2307 2881 2884 1
2308 2881 2885 1
2309 2886 2887 1
2310 2886 2888 1
2311 2886 2889 1
2312 2886 2890 1
2313 2891 2892 1
2314 2891 2893 1
2315 2891 2894 1
2316 2891 2895 1
2317 2896 2897 1
2318 2896 2898 1
2319 2896 2899 1
2320 2896 2900 1
2321 2901 2902 1
2322 2901 2903 1
2323 2901 2904 1
2324 2901 2905 1
2325 2906 2910 1
2326 2906 2907 1
2327 2906 2908 1
2328 2906 2909 1
2329 2911 2912 1
2330 2911 2913 1
2331 2911 2914 1
2332 2911 2915 1
2333 2916 2917 1
2334 2916 2918 1
2335 2916 2919 1
2336 2916 2920 1
2337 2921 2922 1
2338 2921 2923 1
2339 2921 2924 1
2340 2921 2925 1
2341 2926 2927 1
2342 2926 2928 1
2343 2926 2929 1
2344 2926 2930 1
2345 2931 2932 1
2346 2931 2933 1
2347 2931 2934 1
2348 2931 2935 1
2349 2936 2937 1
2350 2936 2938 1
2351 2936 2939 1
2352 2936 2940 1
2353 2941 2942 1
2354 2941 2943 1
2355 2941 2944 1
2356 2941 2945 1
2357 2946 2947 1
2358 2946 2948 1
2359 2946 2949 1
2360 2946 2950 1
2361 2951 2952 1
2362 2951 2953 1
2363 2951 2954 1
2364 2951 2955 1
2365 2956 2957 1
2366 2956 2958 1
2367 2956 2959 1
2368 2956 2960 1
2369 2961 2962 1
2370 2961 2963 1
2371 2961 2964 1
2372 2961 2965 1
2373 2966 2967 1
2374 2966 2968 1
2375 2966 2969 1
2376 2966 2970 1
2377 2971 2972 1
2378 2971 2973 1
2379 2971 2974 1
2380 2971 2975 1
2381 2976 2977 1
2382 2976 2978 1
2383 2976 2979 1
2384 2976 2980 1
2385 2981 2982 1
2386 2981 2983 1
2387 2981 2984 1
2388 2981 2985 1
2389 2986 2987 1
2390 2986 2988 1
2391 2986 2989 1
2392 2986 2990 1
2393 2991 2992 1
2394 2991 2993 1
2395 2991 2994 1
2396 2991 2995 1
2397 2996 2997 1
2398 2996 2998 1
2399 2996 2999 1
2400 2996 3000 1
2401 3001 3002 1
2402 3001 3003 1
2403 3001 3004 1
2404 3001 3005 1
2405 3006 3007 1
2406 3006 3008 1
2407 3006 3009 1
2408 3006 3010 1
2409 3011 3012 1
2410 3011 3013 1
2411 3011 3014 1
2412 3011 3015 1
2413 3016 3017 1
2414 3016 3018 1
2415 3016 3019 1
2416 3016 3020 1
2417 3021 3022 1
2418 3021 3023 1
2419 3021 3024 1
2420 3021 3025 1
2421 3026 3027 1
2422 3026 3028 1
2423 3026 3029 1
2424 3026 3030 1
2425 3031 3033 1
2426 3031 3034 1
2427 3031 3032 1
2428 3031 3035 1
2429 3036 3037 1
2430 3036 3038 1
2431 3036 3039 1
2432 3036 3040 1
2433 3041 3042 1
2434 3041 3043 1
2435 3041 3044 1
2436 3041 3045 1
2437 3046 3047 1
2438 3046 3048 1
2439 3046 3049 1
2440 3046 3050 1
2441 3051 3052 1
2442 3051 3053 1
2443 3051 3055 1
2444 3051 3054 1
2445 3056 3057 1
2446 3056 3058 1
2447 3056 3059 1
2448 3056 3060 1
2449 3061 3062 1
2450 3061 3063 1
2451 3061 3064 1
2452 3061 3065 1
2453 3066 3067 1
2454 3066 3068 1
2455 3066 3069 1
2456 3066 3070 1
2457 3071 3072 1
2458 3071 3073 1
2459 3071 3074 1
2460 3071 3075 1
2461 3076 3078 1
2462 3076 3079 1
2463 3076 3080 1
2464 3076 3077 1
2465 3081 3082 1
2466 3081 3085 1
2467 3081 3084 1
2468 3081 3083 1
2469 3086 3087 1
2470 3086 3088 1
2471 3086 3089 1
2472 3086 3090 1
2473 3091 3092 1
2474 3091 3093 1
2475 3091 3094 1
2476 3091 3095 1
2477 3096 3097 1
2478 3096 3098 1
2479 3096 3099 1
2480 3096 3100 1
2481 3101 3102 1
2482 3101 3103 1
2483 3101 3104 1
2484 3101 3105 1
2485 3106 3107 1
2486 3106 3108 1
2487 3106 3109 1
2488 3106 3110 1
2489 3111 3112 1
2490 3111 3113 1
2491 3111 3114 1
2492 3111 3115 1
2493 3116 3117 1
2494 3116 3118 1
2495 3116 3119 1
2496 3116 3120 1
2497 3121 3122 1
2498 3121 3123 1
2499 3121 3124 1
2500 3121 3125 1
2501 3126 3127 1
2502 3126 3128 1
2503 3126 3129 1
2504 3126 3130 1
2505 3131 3132 1
2506 3131 3133 1
2507 3131 3134 1
2508 3131 3135 1
2509 3136 3137 1
2510 3136 3138 1
2511 3136 3139 1
2512 3136 3140 1
2513 3141 3142 1
2514 3141 3143 1
2515 3141 3144 1
2516 3141 3145 1
2517 3146 3147 1
2518 3146 3148 1
2519 3146 3149 1
2520 3146 3150 1
2521 3151 3152 1
2522 3151 3153 1
2523 3151 3154 1
2524 3151 3155 1
2525 3156 3159 1
2526 3156 3160 1
2527 3156 3157 1
2528 3156 3158 1
2529 3161 3162 1
2530 3161 3163 1
2531 3161 3164 1
2532 3161 3165 1
2533 3166 3167 1
2534 3166 3168 1
2535 3166 3169 1
2536 3166 3170 1
2537 3171 3172 1
2538 3171 3173 1
2539 3171 3174 1
2540 3171 3175 1
2541 3176 3177 1
2542 3176 3178 1
2543 3176 3179 1
2544 3176 3180 1
2545 3181 3182 1
2546 3181 3183 1
2547 3181 3184 1
2548 3181 3185 1
2549 3186 3187 1
2550 3186 3188 1
2551 3186 3189 1
2552 3186 3190 1
2553 3191 3192 1
2554 3191 3193 1
2555 3191 3194 1
2556 3191 3195 1
2557 3196 3197 1
2558 3196 3198 1
2559 3196 3199 1
2560 3196 3200 1
2561 3201 3202 1
2562 3201 3203 1
2563 3201 3204 1
2564 3201 3205 1
2565 3206 3207 1
2566 3206 3208 1
2567 3206 3209 1
2568 3206 3210 1
2569 3211 3212 1
2570 3211 3213 1
2571 3211 3214 1
2572 3211 3215 1
2573 3216 3217 1
2574 3216 3218 1
2575 3216 3219 1
2576 3216 3220 1
2577 3221 3222 1
2578 3221 3223 1
2579 3221 3224 1
2580 3221 3225 1
2581 3226 3227 1
2582 3226 3228 1
2583 3226 3229 1
2584 3226 3230 1
2585 3231 3232 1
2586 3231 3233 1
2587 3231 3234 1
2588 3231 3235 1
2589 3236 3237 1
2590 3236 3238 1
2591 3236 3239 1
2592 3236 3240 1
2593 3241 3242 1
2594 3241 3243 1
2595 3241 3244 1
2596 3241 3245 1
2597 3246 3247 1
2598 3246 3248 1
2599 3246 3249 1
2600 3246 3250 1
2601 3251 3252 1
2602 3251 3253 1
2603 3251 3254 1
2604 3251 3255 1
2605 3256 3257 1
2606 3256 3258 1
2607 3256 3259 1
2608 3256 3260 1
2609 3261 3262 1
2610 3261 3263 1
2611 3261 3264 1
2612 3261 3265 1
2613 3266 3267 1
2614 3266 3268 1
2615 3266 3269 1
2616 3266 3270 1
2617 3271 3272 1
2618 3271 3273 1
2619 3271 3274 1
2620 3271 3275 1
2621 3276 3277 1
2622 3276 3278 1
2623 3276 3279 1
2624 3276 3280 1
2625 3281 3282 1
2626 3281 3283 1
2627 3281 3284 1
2628 3281 3285 1
2629 3286 3287 1
2630 3286 3288 1
2631 3286 3289 1
2632 3286 3290 1
2633 3291 3292 1
2634 3291 3293 1
2635 3291 3294 1
2636 3291 3295 1
2637 3296 3297 1
2638 3296 3298 1
2639 3296 3299 1
2640 3296 3300 1
2641 3301 3302 1
2642 3301 3303 1
2643 3301 3304 1
2644 3301 3305 1
2645 3306 3307 1
2646 3306 3308 1
2647 3306 3309 1
2648 3306 3310 1
2649 3311 3312 1
2650 3311 3313 1
2651 3311 3314 1
2652 3311 3315 1
2653 3316 3317 1
2654 3316 3318 1
2655 3316 3319 1
2656 3316 3320 1
2657 3321 3322 1
2658 3321 3323 1
2659 3321 3324 1
2660 3321 3325 1
2661 3326 3330 1
2662 3326 3327 1
2663 3326 3328 1
2664 3326 3329 1
2665 3331 3332 1
2666 3331 3333 1
2667 3331 3334 1
2668 3331 3335 1
2669 3336 3337 1
2670 3336 3338 1
2671 3336 3339 1
2672 3336 3340 1
2673 3341 3342 1
2674 3341 3343 1
2675 3341 3344 1
2676 3341 3345 1
2677 3346 3347 1
2678 3346 3348 1
2679 3346 3349 1
2680 3346 3350 1
2681 3351 3352 1
2682 3351 3353 1
2683 3351 3354 1
2684 3351 3355 1
2685 3356 3357 1
2686 3356 3358 1
2687 3356 3360 1
2688 3356 3359 1
2689 3361 3362 1
2690 3361 3363 1
2691 3361 3364 1
2692 3361 3365 1
2693 3366 3367 1
2694 3366 3368 1
2695 3366 3369 1
2696 3366 3370 1
2697 3371 3372 1
2698 3371 3373 1
2699 3371 3374 1
2700 3371 3375 1
2701 3376 3377 1
2702 3376 3378 1
2703 3376 3379 1
2704 3376 3380 1
2705 3381 3382 1
2706 3381 3383 1
2707 3381 3384 1
2708 3381 3385 1
2709 3386 3387 1
2710 3386 3388 1
2711 3386 3389 1
2712 3386 3390 1
2713 3391 3392 1
2714 3391 3393 1
2715 3391 3394 1
2716 3391 3395 1
2717 3396 3397 1
2718 3396 3398 1
2719 3396 3399 1
2720 3396 3400 1
2721 3401 3402 1
2722 3401 3403 1
2723 3401 3404 1
2724 3401 3405 1
2725 3406 3407 1
2726 3406 3408 1
2727 3406 3409 1
2728 3406 3410 1
2729 3411 3414 1
2730 3411 3415 1
2731 3411 3412 1
2732 3411 3413 1
2733 3416 3417 1
2734 3416 3418 1
2735 3416 3419 1
2736 3416 3420 1
2737 3421 3422 1
2738 3421 3423 1
2739 3421 3424 1
2740 3421 3425 1
2741 3426 3427 1
2742 3426 3428 1
2743 3426 3429 1
2744 3426 3430 1
2745 3431 3432 1
2746 3431 3433 1
2747 3431 3434 1
2748 3431 3435 1
2749 3436 3437 1
2750 3436 3438 1
2751 3436 3439 1
2752 3436 3440 1
2753 3441 3442 1
2754 3441 3443 1
2755 3441 3444 1
2756 3441 3445 1
2757 3446 3447 1
2758 3446 3448 1
2759 3446 3449 1
2760 3446 3450 1
2761 3451 3452 1
2762 3451 3453 1
2763 3451 3454 1
2764 3451 3455 1
2765 3456 3457 1
2766 3456 3458 1
2767 3456 3459 1
2768 3456 3460 1
2769 3461 3462 1
2770 3461 3463 1
2771 3461 3464 1
2772 3461 3465 1
2773 3466 3467 1
2774 3466 3468 1
2775 3466 3469 1
2776 3466 3470 1
2777 3471 3472 1
2778 3471 3473 1
2779 3471 3474 1
2780 3471 3475 1
2781 3476 3477 1
2782 3476 3478 1
2783 3476 3479 1
2784 3476 3480 1
2785 3481 3482 1
2786 3481 3483 1
2787 3481 3484 1
2788 3481 3485 1
2789 3486 3487 1
2790 3486 3488 1
2791 3486 3489 1
2792 3486 3490 1
2793 3491 3492 1
2794 3491 3493 1
2795 3491 3494 1
2796 3491 3495 1
2797 3496 3497 1
2798 3496 3498 1
2799 3496 3499 1
2800 3496 3500 1
2801 3501 3502 1
2802 3501 3503 1
2803 3501 3504 1
2804 3501 3505 1
2805 3506 3507 1
2806 3506 3508 1
2807 3506 3509 1
2808 3506 3510 1
2809 3511 3512 1
2810 3511 3513 1
2811 3511 3514 1
2812 3511 3515 1
2813 3516 3517 1
2814 3516 3518 1
2815 3516 3519 1
2816 3516 3520 1
2817 3521 3522 1
2818 3521 3523 1
2819 3521 3524 1
2820 3521 3525 1
2821 3526 3527 1
2822 3526 3528 1
2823 3526 3529 1
2824 3526 3530 1
2825 3531 3532 1
2826 3531 3533 1
2827 3531 3534 1
2828 3531 3535 1
2829 3536 3537 1
2830 3536 3538 1
2831 3536 3539 1
2832 3536 3540 1
2833 3541 3542 1
2834 3541 3543 1
2835 3541 3544 1
2836 3541 3545 1
2837 3546 3548 1
2838 3546 3547 1
2839 3546 3549 1
2840 3546 3550 1
2841 3551 3552 1
2842 3551 3553 1
2843 3551 3554 1
2844 3551 3555 1
2845 3556 3557 1
2846 3556 3558 1
2847 3556 3559 1
2848 3556 3560 1
2849 3561 3562 1
2850 3561 3563 1
2851 3561 3564 1
2852 3561 3565 1
2853 3566 3567 1
2854 3566 3568 1
2855 3566 3569 1
2856 3566 3570 1
2857 3571 3572 1
2858 3571 3573 1
2859 3571 3574 1
2860 3571 3575 1
2861 3576 3577 1
2862 3576 3578 1
2863 3576 3579 1
2864 3576 3580 1
2865 3581 3582 1
2866 3581 3583 1
2867 3581 3584 1
2868 3581 3585 1
2869 3586 3587 1
2870 3586 3588 1
2871 3586 3589 1
2872 3586 3590 1
2873 3591 3592 1
2874 3591 3593 1
2875 3591 3594 1
2876 3591 3595 1
2877 3596 3597 1
2878 3596 3598 1
2879 3596 3599 1
2880 3596 3600 1
2881 3601 3602 1
2882 3601 3603 1
2883 3601 3604 1
2884 3601 3605 1
2885 3606 3607 1
2886 3606 3608 1
2887 3606 3609 1
2888 3606 3610 1
2889 3611 3612 1
2890 3611 3613 1
2891 3611 3614 1
2892 3611 3615 1
2893 3616 3617 1
2894 3616 3618 1
2895 3616 3619 1
2896 3616 3620 1
2897 3621 3622 1
2898 3621 3623 1
2899 3621 3624 1
2900 3621 3625 1
2901 3626 3627 1
2902 3626 3628 1
2903 3626 3629 1
2904 3626 3630 1
2905 3631 3632 1
2906 3631 3633 1
2907 3631 3634 1
2908 3631 3635 1
2909 3636 3637 1
2910 3636 3638 1
2911 3636 3639 1
2912 3636 3640 1
2913 3641 3642 1
2914 3641 3643 1
2915 3641 3644 1
2916 3641 3645 1
2917 3646 3647 1
2918 3646 3648 1
2919 3646 3649 1
2920 3646 3650 1
2921 3651 3652 1
2922 3651 3653 1
2923 3651 3654 1
2924 3651 3655 1
2925 3656 3657 1
2926 3656 3658 1
2927 3656 3659 1
2928 3656 3660 1
2929 3661 3664 1
2930 3661 3665 1
2931 3661 3662 1
2932 3661 3663 1
2933 3666 3667 1
2934 3666 3668 1
2935 3666 3669 1
2936 3666 3670 1
2937 3671 3672 1
2938 3671 3673 1
2939 3671 3674 1
2940 3671 3675 1
2941 3676 3677 1
2942 3676 3678 1
2943 3676 3679 1
2944 3676 3680 1
2945 3681 3682 1
2946 3681 3683 1
2947 3681 3684 1
2948 3681 3685 1
2949 3686 3687 1
2950 3686 3688 1
2951 3686 3689 1
2952 3686 3690 1
2953 3691 3692 1
2954 3691 3693 1
2955 3691 3694 1
2956 3691 3695 1
2957 3696 3697 1
2958 3696 3698 1
2959 3696 3699 1
2960 3696 3700 1
2961 3701 3705 1
2962 3701 3702 1
2963 3701 3703 1
2964 3701 3704 1
2965 3706 3707 1
2966 3706 3708 1
2967 3706 3709 1
2968 3706 3710 1
2969 3711 3712 1
2970 3711 3713 1
2971 3711 3714 1
2972 3711 3715 1
2973 3716 3717 1
2974 3716 3718 1
2975 3716 3719 1
2976 3716 3720 1
2977 3721 3722 1
2978 3721 3723 1
2979 3721 3724 1
2980 3721 3725 1
2981 3726 3727 1
2982 3726 3728 1
2983 3726 3729 1
2984 3726 3730 1
2985 3731 3732 1
2986 3731 3733 1
2987 3731 3734 1
2988 3731 3735 1
2989 3736 3737 1
2990 3736 3738 1
2991 3736 3739 1
2992 3736 3740 1
2993 3741 3742 1
2994 3741 3743 1
2995 3741 3744 1
2996 3741 3745 1
2997 3746 3750 1
2998 3746 3747 1
2999 3746 3748 1
3000 3746 3749 1
3001 3751 3752 1
3002 3751 3753 1
3003 3751 3754 1
3004 3751 3755 1
3005 3756 3757 1
3006 3756 3758 1
3007 3756 3759 1
3008 3756 3760 1
3009 3761 3762 1
3010 3761 3763 1
3011 3761 3764 1
3012 3761 3765 1
3013 3766 3767 1
3014 3766 3768 1
3015 3766 3769 1
3016 3766 3770 1
3017 3771 3772 1
3018 3771 3773 1
3019 3771 3774 1
3020 3771 3775 1
3021 3776 3777 1
3022 3776 3778 1
3023 3776 3779 1
3024 3776 3780 1
3025 3781 3782 1
3026 3781 3783 1
3027 3781 3784 1
3028 3781 3785 1
3029 3786 3787 1
3030 3786 3788 1
3031 3786 3789 1
3032 3786 3790 1
3033 3791 3792 1
3034 3791 3793 1
3035 3791 3794 1
3036 3791 3795 1
3037 3796 3797 1
3038 3796 3798 1
3039 3796 3799 1
3040 3796 3800 1
3041 3801 3802 1
3042 3801 3803 1
3043 3801 3804 1
3044 3801 3805 1
3045 3806 3807 1
3046 3806 3808 1
3047 3806 3809 1
3048 3806 3810 1
3049 3811 3812 1
3050 3811 3813 1
3051 3811 3814 1
3052 3811 3815 1
3053 3816 3817 1
3054 3816 3818 1
3055 3816 3819 1
3056 3816 3820 1
3057 3821 3822 1
3058 3821 3823 1
3059 3821 3824 1
3060 3821 3825 1
3061 3826 3827 1
3062 3826 3828 1
3063 3826 3829 1
3064 3826 3830 1
3065 3831 3834 1
3066 3831 3835 1
3067 3831 3832 1
3068 3831 3833 1
3069 3836 3837 1
3070 3836 3838 1
3071 3836 3839 1
3072 3836 3840 1
3073 3841 3842 1
3074 3841 3843 1
3075 3841 3844 1
3076 3841 3845 1
3077 3846 3847 1
3078 3846 3848 1
3079 3846 3849 1
3080 3846 3850 1
3081 3851 3852 1
3082 3851 3853 1
3083 3851 3854 1
3084 3851 3855 1
3085 3856 3857 1
3086 3856 3858 1
3087 3856 3859 1
3088 3856 3860 1
3089 3861 3862 1
3090 3861 3863 1
3091 3861 3864 1
3092 3861 3865 1
3093 3866 3867 1
3094 3866 3868 1
3095 3866 3869 1
3096 3866 3870 1
3097 3871 3872 1
3098 3871 3873 1
3099 3871 3874 1
3100 3871 3875 1
3101 3876 3877 1
3102 3876 3878 1
3103 3876 3879 1
3104 3876 3880 1
3105 3881 3882 1
3106 3881 3883 1
3107 3881 3884 1
3108 3881 3885 1
3109 3886 3887 1
3110 3886 3888 1
3111 3886 3889 1
3112 3886 3890 1
3113 3891 3892 1
3114 3891 3893 1
3115 3891 3894 1
3116 3891 3895 1
3117 3896 3897 1
3118 3896 3898 1
3119 3896 3899 1
3120 3896 3900 1
3121 3901 3902 1
3122 3901 3903 1
3123 3901 3904 1
3124 3901 3905 1
3125 3906 3907 1
3126 3906 3908 1
3127 3906 3909 1
3128 3906 3910 1
3129 3911 3912 1
3130 3911 3913 1
3131 3911 3914 1
3132 3911 3915 1
3133 3916 3918 1
3134 3916 3919 1
3135 3916 3920 1
3136 3916 3917 1
3137 3921 3922 1
3138 3921 3923 1
3139 3921 3924 1
3140 3921 3925 1
3141 3926 3927 1
3142 3926 3928 1
3143 3926 3929 1
3144 3926 3930 1
3145 3931 3932 1
3146 3931 3933 1
3147 3931 3934 1
3148 3931 3935 1
3149 3936 3937 1
3150 3936 3938 1
3151 3936 3939 1
3152 3936 3940 1
3153 3941 3942 1
3154 3941 3943 1
3155 3941 3944 1
3156 3941 3945 1
3157 3946 3947 1
3158 3946 3948 1
3159 3946 3949 1
3160 3946 3950 1
3161 3951 3952 1
3162 3951 3953 1
3163 3951 3954 1
3164 3951 3955 1
3165 3956 3957 1
3166 3956 3958 1
3167 3956 3959 1
3168 3956 3960 1
3169 3961 3962 1
3170 3961 3963 1
3171 3961 3964 1
3172 3961 3965 1
3173 3966 3967 1
3174 3966 3968 1
3175 3966 3969 1
3176 3966 3970 1
3177 3971 3972 1
3178 3971 3973 1
3179 3971 3974 1
3180 3971 3975 1
3181 3976 3977 1
3182 3976 3978 1
3183 3976 3979 1
3184 3976 3980 1
3185 3981 3982 1
3186 3981 3983 1
3187 3981 3984 1
3188 3981 3985 1
3189 3986 3987 1
3190 3986 3988 1
3191 3986 3989 1
3192 3986 3990 1
3193 3991 3992 1
3194 3991 3993 1
3195 3991 3994 1
3196 3991 3995 1
3197 3996 3997 1
3198 3996 3998 1
3199 3996 3999 1
3200 3996 4000 1
3201 4001 4002 1
3202 4001 4003 1
3203 4001 4004 1
3204 4001 4005 1
3205 4006 4007 1
3206 4006 4008 1
3207 4006 4009 1
3208 4006 4010 1
3209 4011 4012 1
3210 4011 4013 1
3211 4011 4014 1
3212 4011 4015 1
3213 4016 4017 1
3214 4016 4018 1
3215 4016 4019 1
3216 4016 4020 1
3217 4021 4022 1
3218 4021 4023 1
3219 4021 4024 1
3220 4021 4025 1
3221 4026 4027 1
3222 4026 4028 1
3223 4026 4029 1
3224 4026 4030 1
3225 4031 4032 1
3226 4031 4033 1
3227 4031 4034 1
3228 4031 4035 1
3229 4036 4037 1
3230 4036 4038 1
3231 4036 4039 1
3232 4036 4040 1
3233 4041 4042 1
3234 4041 4043 1
3235 4041 4044 1
3236 4041 4045 1
3237 4046 4047 1
3238 4046 4048 1
3239 4046 4049 1
3240 4046 4050 1
3241 4051 4052 1
3242 4051 4053 1
3243 4051 4054 1
3244 4051 4055 1
3245 4056 4057 1
3246 4056 4058 1
3247 4056 4059 1
3248 4056 4060 1
3249 4061 4062 1
3250 4061 4063 1
3251 4061 4064 1
3252 4061 4065 1
3253 4066 4067 1
3254 4066 4068 1
3255 4066 4069 1
3256 4066 4070 1
3257 4071 4072 1
3258 4071 4073 1
3259 4071 4074 1
3260 4071 4075 1
3261 4076 4077 1
3262 4076 4078 1
3263 4076 4079 1
3264 4076 4080 1
3265 4081 4082 1
3266 4081 4083 1
3267 4081 4084 1
3268 4081 4085 1
3269 4086 4087 1
3270 4086 4088 1
3271 4086 4089 1
3272 4086 4090 1
3273 4091 4092 1
3274 4091 4093 1
3275 4091 4094 1
3276 4091 4095 1
3277 4096 4097 1
3278 4096 4098 1
3279 4096 4099 1
3280 4096 4100 1
3281 4101 4102 1
3282 4101 4103 1
3283 4101 4104 1
3284 4101 4105 1
3285 4106 4107 1
3286 4106 4108 1
3287 4106 4109 1
3288 4106 4110 1
3289 4111 4112 1
3290 4111 4113 1
3291 4111 4114 1
3292 4111 4115 1
3293 4116 4117 1
3294 4116 4118 1
3295 4116 4119 1
3296 4116 4120 1
3297 4121 4122 1
3298 4121 4123 1
3299 4121 4124 1
3300 4121 4125 1
3301 4126 4127 1
3302 4126 4128 1
3303 4126 4129 1
3304 4126 4130 1
3305 4131 4132 1
3306 4131 4133 1
3307 4131 4134 1
3308 4131 4135 1
3309 4136 4137 1
3310 4136 4138 1
3311 4136 4139 1
3312 4136 4140 1
3313 4141 4142 1
3314 4141 4143 1
3315 4141 4144 1
3316 4141 4145 1
3317 4146 4147 1
3318 4146 4148 1
3319 4146 4149 1
3320 4146 4150 1
3321 4151 4152 1
3322 4151 4153 1
3323 4151 4154 1
3324 4151 4155 1
3325 4156 4157 1
3326 4156 4158 1
3327 4156 4159 1
3328 4156 4160 1
3329 4161 4162 1
3330 4161 4163 1
3331 4161 4164 1
3332 4161 4165 1
3333 4166 4168 1
3334 4166 4170 1
3335 4166 4167 1
3336 4166 4169 1
3337 4171 4172 1
3338 4171 4173 1
3339 4171 4174 1
3340 4171 4175 1
3341 4176 4177 1
3342 4176 4178 1
3343 4176 4179 1
3344 4176 4180 1
3345 4181 4182 1
3346 4181 4183 1
3347 4181 4184 1
3348 4181 4185 1
3349 4186 4187 1
3350 4186 4188 1
3351 4186 4189 1
3352 4186 4190 1
3353 4191 4192 1
3354 4191 4193 1
3355 4191 4194 1
3356 4191 4195 1
3357 4196 4197 1
3358 4196 4198 1
3359 4196 4199 1
3360 4196 4200 1
3361 4201 4202 1
3362 4201 4203 1
3363 4201 4204 1
3364 4201 4205 1
3365 4206 4207 1
3366 4206 4208 1
3367 4206 4209 1
3368 4206 4210 1
3369 4211 4212 1
3370 4211 4213 1
3371 4211 4214 1
3372 4211 4215 1
3373 4216 4217 1
3374 4216 4218 1
3375 4216 4219 1
3376 4216 4220 1
3377 4221 4222 1
3378 4221 4223 1
3379 4221 4224 1
3380 4221 4225 1
3381 4226 4227 1
3382 4226 4228 1
3383 4226 4229 1
3384 4226 4230 1
3385 4231 4232 1
3386 4231 4233 1
3387 4231 4234 1
3388 4231 4235 1
3389 4236 4237 1
3390 4236 4238 1
3391 4236 4239 1
3392 4236 4240 1
3393 4241 4242 1
3394 4241 4243 1
3395 4241 4244 1
3396 4241 4245 1
3397 4246 4247 1
3398 4246 4248 1
3399 4246 4249 1
3400 4246 4250 1
3401 4251 4254 1
3402 4251 4255 1
3403 4251 4252 1
3404 4251 4253 1
3405 4256 4257 1
3406 4256 4258 1
3407 4256 4259 1
3408 4256 4260 1
3409 4261 4262 1
3410 4261 4263 1
3411 4261 4264 1
3412 4261 4265 1
3413 4266 4267 1
3414 4266 4268 1
3415 4266 4269 1
3416 4266 4270 1
3417 4271 4272 1
3418 4271 4273 1
3419 4271 4274 1
3420 4271 4275 1
3421 4276 4277 1
3422 4276 4278 1
3423 4276 4279 1
3424 4276 4280 1
3425 4281 4282 1
3426 4281 4283 1
3427 4281 4284 1
3428 4281 4285 1
3429 4286 4287 1
3430 4286 4288 1
3431 4286 4289 1
3432 4286 4290 1
3433 4291 4292 1
3434 4291 4293 1
3435 4291 4294 1
3436 4291 4295 1
3437 4296 4297 1
3438 4296 4298 1
3439 4296 4299 1
3440 4296 4300 1
3441 4301 4302 1
3442 4301 4303 1
3443 4301 4304 1
3444 4301 4305 1
3445 4306 4307 1
3446 4306 4308 1
3447 4306 4309 1
3448 4306 4310 1
3449 4311 4312 1
3450 4311 4313 1
3451 4311 4314 1
3452 4311 4315 1
3453 4316 4317 1
3454 4316 4318 1
3455 4316 4319 1
3456 4316 4320 1
3457 4321 4322 1
3458 4321 4323 1
3459 4321 4324 1
3460 4321 4325 1
3461 4326 4327 1
3462 4326 4328 1
3463 4326 4329 1
3464 4326 4330 1
3465 4331 4332 1
3466 4331 4333 1
3467 4331 4334 1
3468 4331 4335 1
3469 4336 4338 1
3470 4336 4339 1
3471 4336 4340 1
3472 4336 4337 1
3473 4341 4342 1
3474 4341 4343 1
3475 4341 4344 1
3476 4341 4345 1
3477 4346 4347 1
3478 4346 4348 1
3479 4346 4349 1
3480 4346 4350 1
3481 4351 4352 1
3482 4351 4353 1
3483 4351 4354 1
3484 4351 4355 1
3485 4356 4357 1
3486 4356 4358 1
3487 4356 4359 1
3488 4356 4360 1
3489 4361 4362 1
3490 4361 4363 1
3491 4361 4364 1
3492 4361 4365 1
3493 4366 4367 1
3494 4366 4368 1
3495 4366 4369 1
3496 4366 4370 1
3497 4371 4372 1
3498 4371 4373 1
3499 4371 4374 1
3500 4371 4375 1
3501 4376 4377 1
3502 4376 4378 1
3503 4376 4379 1
3504 4376 4380 1
3505 4381 4382 1
3506 4381 4383 1
3507 4381 4384 1
3508 4381 4385 1
3509 4386 4387 1
3510 4386 4388 1
3511 4386 4389 1
3512 4386 4390 1
3513 4391 4392 1
3514 4391 4393 1
3515 4391 4394 1
3516 4391 4395 1
3517 4396 4397 1
3518 4396 4398 1
3519 4396 4399 1
3520 4396 4400 1
3521 4401 4402 1
3522 4401 4403 1
3523 4401 4404 1
3524 4401 4405 1
3525 4406 4407 1
3526 4406 4408 1
3527 4406 4409 1
3528 4406 4410 1
3529 4411 4412 1
3530 4411 4413 1
3531 4411 4414 1
3532 4411 4415 1
3533 4416 4417 1
3534 4416 4418 1
3535 4416 4419 1
3536 4416 4420 1
3537 4421 4422 1
3538 4421 4423 1
3539 4421 4424 1
3540 4421 4425 1
3541 4426 4427 1
3542 4426 4428 1
3543 4426 4429 1
3544 4426 4430 1
3545 4431 4432 1
3546 4431 4433 1
3547 4431 4434 1
3548 4431 4435 1
3549 4436 4437 1
3550 4436 4438 1
3551 4436 4439 1
3552 4436 4440 1
3553 4441 4442 1
3554 4441 4443 1
3555 4441 4444 1
3556 4441 4445 1
3557 4446 4447 1
3558 4446 4448 1
3559 4446 4449 1
3560 4446 4450 1
3561 4451 4452 1
3562 4451 4453 1
3563 4451 4454 1
3564 4451 4455 1
3565 4456 4457 1
3566 4456 4458 1
3567 4456 4459 1
3568 4456 4460 1
3569 4461 4462 1
3570 4461 4463 1
3571 4461 4464 1
3572 4461 4465 1
3573 4466 4467 1
3574 4466 4468 1
3575 4466 4469 1
3576 4466 4470 1
3577 4471 4472 1
3578 4471 4473 1
3579 4471 4474 1
3580 4471 4475 1
3581 4476 4477 1
3582 4476 4478 1
3583 4476 4479 1
3584 4476 4480 1
3585 4481 4482 1
3586 4481 4483 1
3587 4481 4484 1
3588 4481 4485 1
3589 4486 4487 1
3590 4486 4488 1
3591 4486 4489 1
3592 4486 4490 1
3593 4491 4492 1
3594 4491 4493 1
3595 4491 4494 1
3596 4491 4495 1
3597 4496 4497 1
3598 4496 4498 1
3599 4496 4499 1
3600 4496 4500 1
3601 4501 4502 1
3602 4501 4503 1
3603 4501 4504 1
3604 4501 4505 1
3605 4506 4507 1
3606 4506 4508 1
3607 4506 4509 1
3608 4506 4510 1
3609 4511 4512 1
3610 4511 4513 1
3611 4511 4514 1
3612 4511 4515 1
3613 4516 4517 1
3614 4516 4518 1
3615 4516 4519 1
3616 4516 4520 1
3617 4521 4522 1
3618 4521 4523 1
3619 4521 4524 1
3620 4521 4525 1
3621 4526 4527 1
3622 4526 4528 1
3623 4526 4529 1
3624 4526 4530 1
3625 4531 4532 1
3626 4531 4533 1
3627 4531 4534 1
3628 4531 4535 1
3629 4536 4537 1
3630 4536 4538 1
3631 4536 4539 1
3632 4536 4540 1
3633 4541 4542 1
3634 4541 4543 1
3635 4541 4544 1
3636 4541 4545 1
3637 4546 4547 1
3638 4546 4548 1
3639 4546 4549 1
3640 4546 4550 1
3641 4551 4552 1
3642 4551 4553 1
3643 4551 4554 1
3644 4551 4555 1
3645 4556 4557 1
3646 4556 4558 1
3647 4556 4559 1
3648 4556 4560 1
3649 4561 4562 1
3650 4561 4563 1
3651 4561 4564 1
3652 4561 4565 1
3653 4566 4567 1
3654 4566 4568 1
3655 4566 4569 1
3656 4566 4570 1
3657 4571 4572 1
3658 4571 4573 1
3659 4571 4574 1
3660 4571 4575 1
3661 4576 4577 1
3662 4576 4578 1
3663 4576 4579 1
3664 4576 4580 1
3665 4581 4582 1
3666 4581 4583 1
3667 4581 4584 1
3668 4581 4585 1
3669 4586 4590 1
3670 4586 4587 1
3671 4586 4588 1
3672 4586 4589 1
3673 4591 4592 1
3674 4591 4593 1
3675 4591 4594 1
3676 4591 4595 1
3677 4596 4597 1
3678 4596 4598 1
3679 4596 4599 1
3680 4596 4600 1
3681 4601 4602 1
3682 4601 4603 1
3683 4601 4604 1
3684 4601 4605 1
3685 4606 4607 1
3686 4606 4608 1
3687 4606 4609 1
3688 4606 4610 1
3689 4611 4612 1
3690 4611 4613 1
3691 4611 4614 1
3692 4611 4615 1
3693 4616 4617 1
3694 4616 4618 1
3695 4616 4619 1
3696 4616 4620 1
3697 4621 4622 1
3698 4621 4623 1
3699 4621 4624 1
3700 4621 4625 1
3701 4626 4627 1
3702 4626 4628 1
3703 4626 4629 1
3704 4626 4630 1
3705 4631 4632 1
3706 4631 4633 1
3707 4631 4634 1
3708 4631 4635 1
3709 4636 4637 1
3710 4636 4638 1
3711 4636 4639 1
3712 4636 4640 1
3713 4641 4642 1
3714 4641 4643 1
3715 4641 4644 1
3716 4641 4645 1
3717 4646 4647 1
3718 4646 4648 1
3719 4646 4649 1
3720 4646 4650 1
3721 4651 4652 1
3722 4651 4653 1
3723 4651 4654 1
3724 4651 4655 1
3725 4656 4657 1
3726 4656 4658 1
3727 4656 4659 1
3728 4656 4660 1
3729 4661 4662 1
3730 4661 4663 1
3731 4661 4664 1
3732 4661 4665 1
3733 4666 4667 1
3734 4666 4668 1
3735 4666 4669 1
3736 4666 4670 1
3737 4671 4674 1
3738 4671 4675 1
3739 4671 4672 1
3740 4671 4673 1
3741 4676 4677 1
3742 4676 4678 1
3743 4676 4679 1
3744 4676 4680 1
3745 4681 4682 1
3746 4681 4683 1
3747 4681 4684 1
3748 4681 4685 1
3749 4686 4687 1
3750 4686 4688 1
3751 4686 4689 1
3752 4686 4690 1
3753 4691 4692 1
3754 4691 4693 1
3755 4691 4694 1
3756 4691 4695 1
3757 4696 4697 1
3758 4696 4698 1
3759 4696 4699 1
3760 4696 4700 1
3761 4701 4702 1
3762 4701 4703 1
3763 4701 4704 1
3764 4701 4705 1
3765 4706 4707 1
3766 4706 4708 1
3767 4706 4709 1
3768 4706 4710 1
3769 4711 4712 1
3770 4711 4713 1
3771 4711 4714 1
3772 4711 4715 1
3773 4716 4717 1
3774 4716 4718 1
3775 4716 4719 1
3776 4716 4720 1
3777 4721 4722 1
3778 4721 4723 1
3779 4721 4724 1
3780 4721 4725 1
3781 4726 4727 1
3782 4726 4728 1
3783 4726 4729 1
3784 4726 4730 1
3785 4731 4734 1
3786 4731 4732 1
3787 4731 4733 1
3788 4731 4735 1
3789 4736 4737 1
3790 4736 4738 1
3791 4736 4739 1
3792 4736 4740 1
3793 4741 4742 1
3794 4741 4743 1
3795 4741 4744 1
3796 4741 4745 1
3797 4746 4747 1
3798 4746 4748 1
3799 4746 4749 1
3800 4746 4750 1
3801 4751 4752 1
3802 4751 4753 1
3803 4751 4754 1
3804 4751 4755 1
3805 4756 4758 1
3806 4756 4759 1
3807 4756 4760 1
3808 4756 4757 1
3809 4761 4762 1
3810 4761 4763 1
3811 4761 4764 1
3812 4761 4765 1
3813 4766 4767 1
3814 4766 4768 1
3815 4766 4769 1
3816 4766 4770 1
3817 4771 4772 1
3818 4771 4773 1
3819 4771 4774 1
3820 4771 4775 1
3821 4776 4777 1
3822 4776 4778 1
3823 4776 4779 1
3824 4776 4780 1
3825 4781 4782 1
3826 4781 4783 1
3827 4781 4784 1
3828 4781 4785 1
3829 4786 4787 1
3830 4786 4788 1
3831 4786 4789 1
3832 4786 4790 1
3833 4791 4792 1
3834 4791 4793 1
3835 4791 4794 1
3836 4791 4795 1
3837 4796 4797 1
3838 4796 4798 1
3839 4796 4799 1
3840 4796 4800 1
3841 4801 4802 1
3842 4801 4803 1
3843 4801 4804 1
3844 4801 4805 1
3845 4806 4807 1
3846 4806 4808 1
3847 4806 4809 1
3848 4806 4810 1
3849 4811 4812 1
3850 4811 4813 1
3851 4811 4814 1
3852 4811 4815 1
3853 4816 4817 1
3854 4816 4818 1
3855 4816 4819 1
3856 4816 4820 1
3857 4821 4822 1
3858 4821 4823 1
3859 4821 4824 1
3860 4821 4825 1
3861 4826 4827 1
3862 4826 4828 1
3863 4826 4829 1
3864 4826 4830 1
3865 4831 4832 1
3866 4831 4833 1
3867 4831 4834 1
3868 4831 4835 1
3869 4836 4837 1
3870 4836 4838 1
3871 4836 4839 1
3872 4836 4840 1
3873 4841 4842 1
3874 4841 4843 1
3875 4841 4844 1
3876 4841 4845 1
3877 4846 4847 1
3878 4846 4848 1
3879 4846 4849 1
3880 4846 4850 1
3881 4851 4852 1
3882 4851 4853 1
3883 4851 4854 1
3884 4851 4855 1
3885 4856 4857 1
3886 4856 4858 1
3887 4856 4859 1
3888 4856 4860 1
3889 4861 4862 1
3890 4861 4863 1
3891 4861 4865 1
3892 4861 4864 1
3893 4866 4868 1
3894 4866 4867 1
3895 4866 4869 1
3896 4866 4870 1
3897 4871 4872 1
3898 4871 4873 1
3899 4871 4874 1
3900 4871 4875 1
3901 4876 4877 1
3902 4876 4878 1
3903 4876 4879 1
3904 4876 4880 1
3905 4881 4882 1
3906 4881 4883 1
3907 4881 4884 1
3908 4881 4885 1
3909 4886 4887 1
3910 4886 4888 1
3911 4886 4889 1
3912 4886 4890 1
3913 4891 4892 1
3914 4891 4893 1
3915 4891 4894 1
3916 4891 4895 1
3917 4896 4897 1
3918 4896 4898 1
3919 4896 4899 1
3920 4896 4900 1
3921 4901 4902 1
3922 4901 4903 1
3923 4901 4904 1
3924 4901 4905 1
3925 4906 4907 1
3926 4906 4908 1
3927 4906 4909 1
3928 4906 4910 1
3929 4911 4912 1
3930 4911 4913 1
3931 4911 4914 1
3932 4911 4915 1
3933 4916 4917 1
3934 4916 4918 1
3935 4916 4919 1
3936 4916 4920 1
3937 4921 4922 1
3938 4921 4923 1
3939 4921 4924 1
3940 4921 4925 1
3941 4926 4927 1
3942 4926 4928 1
3943 4926 4929 1
3944 4926 4930 1
3945 4931 4932 1
3946 4931 4933 1
3947 4931 4934 1
3948 4931 4935 1
3949 4936 4937 1
3950 4936 4938 1
3951 4936 4939 1
3952 4936 4940 1
3953 4941 4942 1
3954 4941 4943 1
3955 4941 4944 1
3956 4941 4945 1
3957 4946 4947 1
3958 4946 4948 1
3959 4946 4949 1
3960 4946 4950 1
3961 4951 4952 1
3962 4951 4953 1
3963 4951 4954 1
3964 4951 4955 1
3965 4956 4957 1
3966 4956 4958 1
3967 4956 4959 1
3968 4956 4960 1
3969 4961 4962 1
3970 4961 4963 1
3971 4961 4964 1
3972 4961 4965 1
3973 4966 4967 1
3974 4966 4968 1
3975 4966 4969 1
3976 4966 4970 1
3977 4971 4972 1
3978 4971 4973 1
3979 4971 4974 1
3980 4971 4975 1
3981 4976 4978 1
3982 4976 4979 1
3983 4976 4977 1
3984 4976 4980 1
3985 4981 4982 1
3986 4981 4983 1
3987 4981 4984 1
3988 4981 4985 1
3989 4986 4987 1
3990 4986 4988 1
3991 4986 4989 1
3992 4986 4990 1
3993 4991 4992 1
3994 4991 4993 1
3995 4991 4994 1
3996 4991 4995 1
3997 4996 4997 1
3998 4996 4998 1
3999 4996 4999 1
4000 4996 5000 1
4001 5001 5002 1
4002 5001 5003 1
4003 5001 5004 1
4004 5001 5005 1
4005 5006 5007 1
4006 5006 5008 1
4007 5006 5009 1
4008 5006 5010 1
4009 5011 5012 1
4010 5011 5013 1
4011 5011 5014 1
4012 5011 5015 1
4013 5016 5017 1
4014 5016 5018 1
4015 5016 5019 1
4016 5016 5020 1
4017 5021 5022 1
4018 5021 5023 1
4019 5021 5024 1
4020 5021 5025 1
4021 5026 5027 1
4022 5026 5028 1
4023 5026 5029 1
4024 5026 5030 1
4025 5031 5032 1
4026 5031 5033 1
4027 5031 5034 1
4028 5031 5035 1
4029 5036 5037 1
4030 5036 5038 1
4031 5036 5039 1
4032 5036 5040 1
4033 5041 5042 1
4034 5041 5043 1
4035 5041 5044 1
4036 5041 5045 1
4037 5046 5047 1
4038 5046 5048 1
4039 5046 5049 1
4040 5046 5050 1
4041 5051 5052 1
4042 5051 5053 1
4043 5051 5054 1
4044 5051 5055 1
4045 5056 5057 1
4046 5056 5058 1
4047 5056 5059 1
4048 5056 5060 1
4049 5061 5062 1
4050 5061 5063 1
4051 5061 5064 1
4052 5061 5065 1
4053 5066 5067 1
4054 5066 5068 1
4055 5066 5069 1
4056 5066 5070 1
4057 5071 5072 1
4058 5071 5073 1
4059 5071 5074 1
4060 5071 5075 1
4061 5076 5077 1
4062 5076 5078 1
4063 5076 5079 1
4064 5076 5080 1
4065 5081 5082 1
4066 5081 5083 1
4067 5081 5084 1
4068 5081 5085 1
4069 5086 5087 1
4070 5086 5088 1
4071 5086 5089 1
4072 5086 5090 1
4073 5091 5094 1
4074 5091 5095 1
4075 5091 5092 1
4076 5091 5093 1
4077 5096 5097 1
4078 5096 5098 1
4079 5096 5099 1
4080 5096 5100 1
4081 5101 5102 1
4082 5101 5103 1
4083 5101 5104 1
4084 5101 5105 1
4085 5106 5107 1
4086 5106 5108 1
4087 5106 5109 1
4088 5106 5110 1
4089 5111 5112 1
4090 5111 5113 1
4091 5111 5114 1
4092 5111 5115 1
4093 5116 5117 1
4094 5116 5118 1
4095 5116 5119 1
4096 5116 5120 1
4097 5121 5122 1
4098 5121 5123 1
4099 5121 5124 1
4100 5121 5125 1
4101 5126 5127 1
4102 5126 5128 1
4103 5126 5129 1
4104 5126 5130 1
4105 5131 5132 1
4106 5131 5133 1
4107 5131 5134 1
4108 5131 5135 1
4109 5136 5137 1
4110 5136 5138 1
4111 5136 5139 1
4112 5136 5140 1
4113 5141 5142 1
4114 5141 5143 1
4115 5141 5144 1
4116 5141 5145 1
4117 5146 5147 1
4118 5146 5148 1
4119 5146 5149 1
4120 5146 5150 1
4121 5151 5152 1
4122 5151 5153 1
4123 5151 5154 1
4124 5151 5155 1
4125 5156 5157 1
4126 5156 5158 1
4127 5156 5159 1
4128 5156 5160 1
4129 5161 5162 1
4130 5161 5163 1
4131 5161 5164 1
4132 5161 5165 1
4133 5166 5167 1
4134 5166 5168 1
4135 5166 5169 1
4136 5166 5170 1
4137 5171 5172 1
4138 5171 5173 1
4139 5171 5174 1
4140 5171 5175 1
4141 5176 5177 1
4142 5176 5178 1
4143 5176 5179 1
4144 5176 5180 1
4145 5181 5182 1
4146 5181 5183 1
4147 5181 5184 1
4148 5181 5185 1
4149 5186 5187 1
4150 5186 5188 1
4151 5186 5189 1
4152 5186 5190 1
4153 5191 5192 1
4154 5191 5193 1
4155 5191 5194 1
4156 5191 5195 1
4157 5196 5197 1
4158 5196 5198 1
4159 5196 5199 1
4160 5196 5200 1
4161 5201 5202 1
4162 5201 5203 1
4163 5201 5204 1
4164 5201 5205 1
4165 5206 5207 1
4166 5206 5208 1
4167 5206 5209 1
4168 5206 5210 1
4169 5211 5212 1
4170 5211 5213 1
4171 5211 5214 1
4172 5211 5215 1
4173 5216 5217 1
4174 5216 5218 1
4175 5216 5219 1
4176 5216 5220 1
4177 5221 5222 1
4178 5221 5223 1
4179 5221 5224 1
4180 5221 5225 1
4181 5226 5227 1
4182 5226 5228 1
4183 5226 5229 1
4184 5226 5230 1
4185 5231 5232 1
4186 5231 5233 1
4187 5231 5234 1
4188 5231 5235 1
4189 5236 5237 1
4190 5236 5238 1
4191 5236 5239 1
4192 5236 5240 1
4193 5241 5242 1
4194 5241 5243 1
4195 5241 5244 1
4196 5241 5245 1
4197 5246 5247 1
4198 5246 5248 1
4199 5246 5249 1
4200 5246 5250 1
4201 5251 5252 1
4202 5251 5253 1
4203 5251 5254 1
4204 5251 5255 1
4205 5256 5259 1
4206 5256 5260 1
4207 5256 5257 1
4208 5256 5258 1
4209 5261 5262 1
4210 5261 5263 1
4211 5261 5264 1
4212 5261 5265 1
4213 5266 5267 1
4214 5266 5268 1
4215 5266 5269 1
4216 5266 5270 1
4217 5271 5272 1
4218 5271 5273 1
4219 5271 5274 1
4220 5271 5275 1
4221 5276 5277 1
4222 5276 5278 1
4223 5276 5279 1
4224 5276 5280 1
4225 5281 5282 1
4226 5281 5283 1
4227 5281 5284 1
4228 5281 5285 1
4229 5286 5287 1
4230 5286 5288 1
4231 5286 5289 1
4232 5286 5290 1
4233 5291 5292 1
4234 5291 5293 1
4235 5291 5294 1
4236 5291 5295 1
4237 5296 5297 1
4238 5296 5298 1
4239 5296 5299 1
4240 5296 5300 1
4241 5301 5302 1
4242 5301 5303 1
4243 5301 5304 1
4244 5301 5305 1
4245 5306 5307 1
4246 5306 5308 1
4247 5306 5309 1
4248 5306 5310 1
4249 5311 5312 1
4250 5311 5313 1
4251 5311 5314 1
4252 5311 5315 1
4253 5316 5317 1
4254 5316 5318 1
4255 5316 5319 1
4256 5316 5320 1
4257 5321 5322 1
4258 5321 5323 1
4259 5321 5324 1
4260 5321 5325 1
4261 5326 5327 1
4262 5326 5328 1
4263 5326 5329 1
4264 5326 5330 1
4265 5331 5332 1
4266 5331 5333 1
4267 5331 5334 1
4268 5331 5335 1
4269 5336 5337 1
4270 5336 5338 1
4271 5336 5339 1
4272 5336 5340 1
4273 5341 5342 1
4274 5341 5343 1
4275 5341 5344 1
4276 5341 5345 1
4277 5346 5347 1
4278 5346 5348 1
4279 5346 5349 1
4280 5346 5350 1
4281 5351 5352 1
4282 5351 5353 1
4283 5351 5354 1
4284 5351 5355 1
4285 5356 5357 1
4286 5356 5358 1
4287 5356 5359 1
4288 5356 5360 1
4289 5361 5362 1
4290 5361 5363 1
4291 5361 5364 1
4292 5361 5365 1
4293 5366 5367 1
4294 5366 5368 1
4295 5366 5369 1
4296 5366 5370 1
4297 5371 5372 1
4298 5371 5373 1
4299 5371 5374 1
4300 5371 5375 1
4301 5376 5377 1
4302 5376 5378 1
4303 5376 5379 1
4304 5376 5380 1
4305 5381 5382 1
4306 5381 5383 1
4307 5381 5384 1
4308 5381 5385 1
4309 5386 5387 1
4310 5386 5388 1
4311 5386 5389 1
4312 5386 5390 1
4313 5391 5392 1
4314 5391 5393 1
4315 5391 5394 1
4316 5391 5395 1
4317 5396 5397 1
4318 5396 5398 1
4319 5396 5399 1
4320 5396 5400 1
4321 5401 5402 1
4322 5401 5403 1
4323 5401 5404 1
4324 5401 5405 1
4325 5406 5407 1
4326 5406 5408 1
4327 5406 5409 1
4328 5406 5410 1
4329 5411 5412 1
4330 5411 5413 1
4331 5411 5414 1
4332 5411 5415 1
4333 5416 5417 1
4334 5416 5418 1
4335 5416 5419 1
4336 5416 5420 1
4337 5421 5422 1
4338 5421 5423 1
4339 5421 5424 1
4340 5421 5425 1
4341 5426 5430 1
4342 5426 5427 1
4343 5426 5428 1
4344 5426 5429 1
4345 5431 5432 1
4346 5431 5433 1
4347 5431 5434 1
4348 5431 5435 1
4349 5436 5437 1
4350 5436 5438 1
4351 5436 5439 1
4352 5436 5440 1
4353 5441 5442 1
4354 5441 5443 1
4355 5441 5444 1
4356 5441 5445 1
4357 5446 5447 1
4358 5446 5448 1
4359 5446 5449 1
4360 5446 5450 1
4361 5451 5452 1
4362 5451 5453 1
4363 5451 5454 1
4364 5451 5455 1
4365 5456 5457 1
4366 5456 5458 1
4367 5456 5459 1
4368 5456 5460 1
4369 5461 5462 1
4370 5461 5463 1
4371 5461 5464 1
4372 5461 5465 1
4373 5466 5467 1
4374 5466 5468 1
4375 5466 5469 1
4376 5466 5470 1
4377 5471 5472 1
4378 5471 5473 1
4379 5471 5474 1
4380 5471 5475 1
4381 5476 5477 1
4382 5476 5478 1
4383 5476 5479 1
4384 5476 5480 1
4385 5481 5482 1
4386 5481 5483 1
4387 5481 5484 1
4388 5481 5485 1
4389 5486 5487 1
4390 5486 5488 1
4391 5486 5489 1
4392 5486 5490 1
4393 5491 5492 1
4394 5491 5493 1
4395 5491 5494 1
4396 5491 5495 1
4397 5496 5497 1
4398 5496 5498 1
4399 5496 5499 1
4400 5496 5500 1
4401 5501 5502 1
4402 5501 5503 1
4403 5501 5504 1
4404 5501 5505 1
4405 5506 5507 1
4406 5506 5508 1
4407 5506 5509 1
4408 5506 5510 1
4409 5511 5512 1
4410 5511 5513 1
4411 5511 5514 1
4412 5511 5515 1
4413 5516 5517 1
4414 5516 5518 1
4415 5516 5519 1
4416 5516 5520 1
4417 5521 5522 1
4418 5521 5523 1
4419 5521 5524 1
4420 5521 5525 1
4421 5526 5527 1
4422 5526 5528 1
4423 5526 5529 1
4424 5526 5530 1
4425 5531 5532 1
4426 5531 5533 1
4427 5531 5534 1
4428 5531 5535 1
4429 5536 5537 1
4430 5536 5538 1
4431 5536 5539 1
4432 5536 5540 1
4433 5541 5542 1
4434 5541 5543 1
4435 5541 5544 1
4436 5541 5545 1
4437 5546 5547 1
4438 5546 5548 1
4439 5546 5549 1
4440 5546 5550 1
4441 5551 5552 1
4442 5551 5553 1
4443 5551 5554 1
4444 5551 5555 1
4445 5556 5557 1
4446 5556 5558 1
4447 5556 5559 1
4448 5556 5560 1
4449 5561 5562 1
4450 5561 5563 1
4451 5561 5564 1
4452 5561 5565 1
4453 5566 5567 1
4454 5566 5568 1
4455 5566 5569 1
4456 5566 5570 1
4457 5571 5572 1
4458 5571 5573 1
4459 5571 5575 1
4460 5571 5574 1
4461 5576 5577 1
4462 5576 5578 1
4463 5576 5579 1
4464 5576 5580 1
4465 5581 5582 1
4466 5581 5583 1
4467 5581 5584 1
4468 5581 5585 1
4469 5586 5587 1
4470 5586 5588 1
4471 5586 5589 1
4472 5586 5590 1
4473 5591 5592 1
4474 5591 5593 1
4475 5591 5594 1
4476 5591 5595 1
4477 5596 5598 1
4478 5596 5599 1
4479 5596 5600 1
4480 5596 5597 1
4481 5601 5602 1
4482 5601 5603 1
4483 5601 5604 1
4484 5601 5605 1
4485 5606 5607 1
4486 5606 5608 1
4487 5606 5609 1
4488 5606 5610 1
4489 5611 5612 1
4490 5611 5613 1
4491 5611 5614 1
4492 5611 5615 1
4493 5616 5617 1
4494 5616 5618 1
4495 5616 5619 1
4496 5616 5620 1
4497 5621 5622 1
4498 5621 5623 1
4499 5621 5624 1
4500 5621 5625 1
4501 5626 5627 1
4502 5626 5628 1
4503 5626 5629 1
4504 5626 5630 1
4505 5631 5632 1
4506 5631 5633 1
4507 5631 5634 1
4508 5631 5635 1
4509 5636 5637 1
4510 5636 5638 1
4511 5636 5639 1
4512 5636 5640 1
4513 5641 5642 1
4514 5641 5643 1
4515 5641 5644 1
4516 5641 5645 1
4517 5646 5647 1
4518 5646 5648 1
4519 5646 5649 1
4520 5646 5650 1
4521 5651 5652 1
4522 5651 5653 1
4523 5651 5654 1
4524 5651 5655 1
4525 5656 5657 1
4526 5656 5658 1
4527 5656 5659 1
4528 5656 5660 1
4529 5661 5662 1
4530 5661 5663 1
4531 5661 5664 1
4532 5661 5665 1
4533 5666 5667 1
4534 5666 5668 1
4535 5666 5669 1
4536 5666 5670 1
4537 5671 5672 1
4538 5671 5673 1
4539 5671 5674 1
4540 5671 5675 1
4541 5676 5677 1
4542 5676 5678 1
4543 5676 5679 1
4544 5676 5680 1
4545 5681 5682 1
4546 5681 5683 1
4547 5681 5684 1
4548 5681 5685 1
4549 5686 5687 1
4550 5686 5688 1
4551 5686 5689 1
4552 5686 5690 1
4553 5691 5692 1
4554 5691 5693 1
4555 5691 5694 1
4556 5691 5695 1
4557 5696 5697 1
4558 5696 5698 1
4559 5696 5699 1
4560 5696 5700 1
4561 5701 5702 1
4562 5701 5703 1
4563 5701 5704 1
4564 5701 5705 1
4565 5706 5707 1
4566 5706 5708 1
4567 5706 5709 1
4568 5706 5710 1
4569 5711 5712 1
4570 5711 5713 1
4571 5711 5714 1
4572 5711 5715 1
4573 5716 5717 1
4574 5716 5718 1
4575 5716 5719 1
4576 5716 5720 1
4577 5721 5722 1
4578 5721 5723 1
4579 5721 5724 1
4580 5721 5725 1
4581 5726 5729 1
4582 5726 5727 1
4583 5726 5728 1
4584 5726 5730 1
4585 5731 5732 1
4586 5731 5733 1
4587 5731 5734 1
4588 5731 5735 1
4589 5736 5737 1
4590 5736 5738 1
4591 5736 5739 1
4592 5736 5740 1
4593 5741 5742 1
4594 5741 5743 1
4595 5741 5744 1
4596 5741 5745 1
4597 5746 5748 1
4598 5746 5749 1
4599 5746 5750 1
4600 5746 5747 1
4601 5751 5752 1
4602 5751 5753 1
4603 5751 5754 1
4604 5751 5755 1
4605 5756 5757 1
4606 5756 5758 1
4607 5756 5759 1
4608 5756 5760 1
4609 5761 5762 1
4610 5761 5763 1
4611 5761 5764 1
4612 5761 5765 1
4613 5766 5767 1
4614 5766 5768 1
4615 5766 5769 1
4616 5766 5770 1
4617 5771 5772 1
4618 5771 5773 1
4619 5771 5774 1
4620 5771 5775 1
4621 5776 5777 1
4622 5776 5778 1
4623 5776 5779 1
4624 5776 5780 1
4625 5781 5782 1
4626 5781 5783 1
4627 5781 5784 1
4628 5781 5785 1
4629 5786 5787 1
4630 5786 5788 1
4631 5786 5789 1
4632 5786 5790 1
4633 5791 5792 1
4634 5791 5793 1
4635 5791 5794 1
4636 5791 5795 1
4637 5796 5797 1
4638 5796 5798 1
4639 5796 5799 1
4640 5796 5800 1
4641 5801 5802 1
4642 5801 5803 1
4643 5801 5804 1
4644 5801 5805 1
4645 5806 5807 1
4646 5806 5808 1
4647 5806 5809 1
4648 5806 5810 1
4649 5811 5812 1
4650 5811 5813 1
4651 5811 5814 1
4652 5811 5815 1
4653 5816 5817 1
4654 5816 5818 1
4655 5816 5819 1
4656 5816 5820 1
4657 5821 5822 1
4658 5821 5823 1
4659 5821 5824 1
4660 5821 5825 1
4661 5826 5827 1
4662 5826 5828 1
4663 5826 5829 1
4664 5826 5830 1
4665 5831 5832 1
4666 5831 5833 1
4667 5831 5834 1
4668 5831 5835 1
4669 5836 5837 1
4670 5836 5838 1
4671 5836 5839 1
4672 5836 5840 1
4673 5841 5842 1
4674 5841 5843 1
4675 5841 5844 1
4676 5841 5845 1
4677 5846 5847 1
4678 5846 5848 1
4679 5846 5849 1
4680 5846 5850 1
4681 5851 5852 1
4682 5851 5853 1
4683 5851 5854 1
4684 5851 5855 1
4685 5856 5857 1
4686 5856 5858 1
4687 5856 5859 1
4688 5856 5860 1
4689 5861 5862 1
4690 5861 5863 1
4691 5861 5864 1
4692 5861 5865 1
4693 5866 5867 1
4694 5866 5868 1
4695 5866 5869 1
4696 5866 5870 1
4697 5871 5872 1
4698 5871 5873 1
4699 5871 5874 1
4700 5871 5875 1
4701 5876 5877 1
4702 5876 5878 1
4703 5876 5879 1
4704 5876 5880 1
4705 5881 5882 1
4706 5881 5883 1
4707 5881 5884 1
4708 5881 5885 1
4709 5886 5887 1
4710 5886 5888 1
4711 5886 5889 1
4712 5886 5890 1
4713 5891 5892 1
4714 5891 5893 1
4715 5891 5894 1
4716 5891 5895 1
4717 5896 5897 1
4718 5896 5898 1
4719 5896 5899 1
4720 5896 5900 1
4721 5901 5902 1
4722 5901 5903 1
4723 5901 5904 1
4724 5901 5905 1
4725 5906 5907 1
4726 5906 5908 1
4727 5906 5909 1
4728 5906 5910 1
4729 5911 5912 1
4730 5911 5913 1
4731 5911 5914 1
4732 5911 5915 1
4733 5916 5917 1
4734 5916 5918 1
4735 5916 5919 1
4736 5916 5920 1
4737 5921 5922 1
4738 5921 5923 1
4739 5921 5924 1
4740 5921 5925 1
4741 5926 5927 1
4742 5926 5928 1
4743 5926 5929 1
4744 5926 5930 1
4745 5931 5934 1
4746 5931 5935 1
4747 5931 5932 1
4748 5931 5933 1
4749 5936 5937 1
4750 5936 5938 1
4751 5936 5939 1
4752 5936 5940 1
4753 5941 5942 1
4754 5941 5943 1
4755 5941 5944 1
4756 5941 5945 1
4757 5946 5947 1
4758 5946 5948 1
4759 5946 5949 1
4760 5946 5950 1
4761 5951 5952 1
4762 5951 5953 1
4763 5951 5954 1
4764 5951 5955 1
4765 5956 5957 1
4766 5956 5958 1
4767 5956 5959 1
4768 5956 5960 1
4769 5961 5962 1
4770 5961 5963 1
4771 5961 5964 1
4772 5961 5965 1
4773 5966 5967 1
4774 5966 5968 1
4775 5966 5969 1
4776 5966 5970 1
4777 5971 5974 1
4778 5971 5975 1
4779 5971 5972 1
4780 5971 5973 1
4781 5976 5977 1
4782 5976 5978 1
4783 5976 5979 1
4784 5976 5980 1
4785 5981 5982 1
4786 5981 5983 1
4787 5981 5984 1
4788 5981 5985 1
4789 5986 5987 1
4790 5986 5988 1
4791 5986 5989 1
4792 5986 5990 1
4793 5991 5992 1
4794 5991 5993 1
4795 5991 5994 1
4796 5991 5995 1
4797 5996 5997 1
4798 5996 5998 1
4799 5996 5999 1
4800 5996 6000 1
4801 6001 6002 1
4802 6001 6003 1
4803 6001 6004 1
4804 6001 6005 1
4805 6006 6007 1
4806 6006 6008 1
4807 6006 6009 1
4808 6006 6010 1
4809 6011 6012 1
4810 6011 6013 1
4811 6011 6014 1
4812 6011 6015 1
4813 6016 6017 1
4814 6016 6018 1
4815 6016 6019 1
4816 6016 6020 1
4817 6021 6022 1
4818 6021 6023 1
4819 6021 6024 1
4820 6021 6025 1
4821 6026 6027 1
4822 6026 6028 1
4823 6026 6029 1
4824 6026 6030 1
4825 6031 6032 1
4826 6031 6033 1
4827 6031 6034 1
4828 6031 6035 1
4829 6036 6037 1
4830 6036 6038 1
4831 6036 6039 1
4832 6036 6040 1
4833 6041 6042 1
4834 6041 6043 1
4835 6041 6044 1
4836 6041 6045 1
4837 6046 6047 1
4838 6046 6048 1
4839 6046 6049 1
4840 6046 6050 1
4841 6051 6052 1
4842 6051 6053 1
4843 6051 6054 1
4844 6051 6055 1
4845 6056 6057 1
4846 6056 6058 1
4847 6056 6059 1
4848 6056 6060 1
4849 6061 6062 1
4850 6061 6063 1
4851 6061 6064 1
4852 6061 6065 1
4853 6066 6067 1
4854 6066 6068 1
4855 6066 6069 1
4856 6066 6070 1
4857 6071 6072 1
4858 6071 6073 1
4859 6071 6074 1
4860 6071 6075 1
4861 6076 6077 1
4862 6076 6078 1
4863 6076 6079 1
4864 6076 6080 1
4865 6081 6082 1
4866 6081 6083 1
4867 6081 6084 1
4868 6081 6085 1
4869 6086 6087 1
4870 6086 6088 1
4871 6086 6089 1
4872 6086 6090 1
4873 6091 6092 1
4874 6091 6093 1
4875 6091 6094 1
4876 6091 6095 1
4877 6096 6100 1
4878 6096 6099 1
4879 6096 6097 1
4880 6096 6098 1
4881 6101 6102 1
4882 6101 6103 1
4883 6101 6104 1
4884 6101 6105 1
4885 6106 6107 1
4886 6106 6108 1
4887 6106 6109 1
4888 6106 6110 1
4889 6111 6112 1
4890 6111 6113 1
4891 6111 6114 1
4892 6111 6115 1
4893 6116 6117 1
4894 6116 6118 1
4895 6116 6119 1
4896 6116 6120 1
4897 6121 6122 1
4898 6121 6123 1
4899 6121 6124 1
4900 6121 6125 1
4901 6126 6127 1
4902 6126 6128 1
4903 6126 6129 1
4904 6126 6130 1
4905 6131 6132 1
4906 6131 6133 1
4907 6131 6134 1
4908 6131 6135 1
4909 6136 6137 1
4910 6136 6138 1
4911 6136 6139 1
4912 6136 6140 1
4913 6141 6142 1
4914 6141 6143 1
4915 6141 6144 1
4916 6141 6145 1
4917 6146 6147 1
4918 6146 6148 1
4919 6146 6149 1
4920 6146 6150 1
4921 6151 6152 1
4922 6151 6153 1
4923 6151 6154 1
4924 6151 6155 1
4925 6156 6157 1
4926 6156 6158 1
4927 6156 6159 1
4928 6156 6160 1
4929 6161 6162 1
4930 6161 6163 1
4931 6161 6164 1
4932 6161 6165 1
4933 6166 6167 1
4934 6166 6168 1
4935 6166 6169 1
4936 6166 6170 1
4937 6171 6172 1
4938 6171 6173 1
4939 6171 6174 1
4940 6171 6175 1
4941 6176 6177 1
4942 6176 6178 1
4943 6176 6179 1
4944 6176 6180 1
4945 6181 6182 1
4946 6181 6183 1
4947 6181 6184 1
4948 6181 6185 1
4949 6186 6187 1
4950 6186 6188 1
4951 6186 6189 1
4952 6186 6190 1
4953 6191 6192 1
4954 6191 6193 1
4955 6191 6194 1
4956 6191 6195 1
4957 6196 6197 1
4958 6196 6198 1
4959 6196 6199 1
4960 6196 6200 1
4961 6201 6202 1
4962 6201 6203 1
4963 6201 6204 1
4964 6201 6205 1
4965 6206 6207 1
4966 6206 6208 1
4967 6206 6209 1
4968 6206 6210 1
4969 6211 6212 1
4970 6211 6213 1
4971 6211 6214 1
4972 6211 6215 1
4973 6216 6217 1
4974 6216 6218 1
4975 6216 6219 1
4976 6216 6220 1
4977 6221 6222 1
4978 6221 6223 1
4979 6221 6224 1
4980 6221 6225 1
4981 6226 6227 1
4982 6226 6228 1
4983 6226 6229 1
4984 6226 6230 1
4985 6231 6232 1
4986 6231 6233 1
4987 6231 6234 1
4988 6231 6235 1
4989 6236 6237 1
4990 6236 6238 1
4991 6236 6239 1
4992 6236 6240 1
4993 6241 6242 1
4994 6241 6243 1
4995 6241 6244 1
4996 6241 6245 1
4997 6246 6247 1
4998 6246 6248 1
4999 6246 6249 1
5000 6246 6250 1
5001 6251 6252 1
5002 6251 6253 1
5003 6251 6254 1
5004 6251 6255 1
5005 6256 6257 1
5006 6256 6258 1
5007 6256 6259 1
5008 6256 6260 1
5009 6261 6262 1
5010 6261 6263 1
5011 6261 6264 1
5012 6261 6265 1
5013 6266 6270 1
5014 6266 6267 1
5015 6266 6268 1
5016 6266 6269 1
5017 6271 6272 1
5018 6271 6273 1
5019 6271 6274 1
5020 6271 6275 1
5021 6276 6277 1
5022 6276 6278 1
5023 6276 6279 1
5024 6276 6280 1
5025 6281 6282 1
5026 6281 6283 1
5027 6281 6284 1
5028 6281 6285 1
5029 6286 6287 1
5030 6286 6288 1
5031 6286 6289 1
5032 6286 6290 1
5033 6291 6292 1
5034 6291 6293 1
5035 6291 6294 1
5036 6291 6295 1
5037 6296 6297 1
5038 6296 6298 1
5039 6296 6299 1
5040 6296 6300 1
5041 6301 6302 1
5042 6301 6303 1
5043 6301 6304 1
5044 6301 6305 1
5045 6306 6307 1
5046 6306 6308 1
5047 6306 6309 1
5048 6306 6310 1
5049 6311 6312 1
5050 6311 6313 1
5051 6311 6314 1
5052 6311 6315 1
5053 6316 6317 1
5054 6316 6318 1
5055 6316 6319 1
5056 6316 6320 1
5057 6321 6322 1
5058 6321 6323 1
5059 6321 6324 1
5060 6321 6325 1
5061 6326 6327 1
5062 6326 6328 1
5063 6326 6329 1
5064 6326 6330 1
5065 6331 6332 1
5066 6331 6333 1
5067 6331 6334 1
5068 6331 6335 1
5069 6336 6337 1
5070 6336 6338 1
5071 6336 6339 1
5072 6336 6340 1
5073 6341 6342 1
5074 6341 6343 1
5075 6341 6344 1
5076 6341 6345 1
5077 6346 6347 1
5078 6346 6348 1
5079 6346 6349 1
5080 6346 6350 1
5081 6351 6352 1
5082 6351 6353 1
5083 6351 6354 1
5084 6351 6355 1
5085 6356 6357 1
5086 6356 6358 1
5087 6356 6359 1
5088 6356 6360 1
5089 6361 6362 1
5090 6361 6363 1
5091 6361 6364 1
5092 6361 6365 1
5093 6366 6367 1
5094 6366 6368 1
5095 6366 6369 1
5096 6366 6370 1
5097 6371 6372 1
5098 6371 6373 1
5099 6371 6374 1
5100 6371 6375 1
5101 6376 6377 1
5102 6376 6378 1
5103 6376 6379 1
5104 6376 6380 1
5105 6381 6382 1
5106 6381 6383 1
5107 6381 6384 1
5108 6381 6385 1
5109 6386 6387 1
5110 6386 6388 1
5111 6386 6389 1
5112 6386 6390 1
5113 6391 6392 1
5114 6391 6393 1
5115 6391 6394 1
5116 6391 6395 1
5117 6396 6397 1
5118 6396 6398 1
5119 6396 6399 1
5120 6396 6400 1
5121 6401 6402 1
5122 6401 6403 1
5123 6401 6404 1
5124 6401 6405 1
5125 6406 6407 1
5126 6406 6408 1
5127 6406 6409 1
5128 6406 6410 1
5129 6411 6412 1
5130 6411 6413 1
5131 6411 6414 1
5132 6411 6415 1
5133 6416 6417 1
5134 6416 6418 1
5135 6416 6419 1
5136 6416 6420 1
5137 6421 6422 1
5138 6421 6423 1
5139 6421 6424 1
5140 6421 6425 1
5141 6426 6427 1
5142 6426 6428 1
5143 6426 6429 1
5144 6426 6430 1
5145 6431 6432 1
5146 6431 6433 1
5147 6431 6434 1
5148 6431 6435 1
5149 6436 6438 1
5150 6436 6439 1
5151 6436 6440 1
5152 6436 6437 1
5153 6441 6442 1
5154 6441 6443 1
5155 6441 6444 1
5156 6441 6445 1
5157 6446 6447 1
5158 6446 6448 1
5159 6446 6449 1
5160 6446 6450 1
5161 6451 6452 1
5162 6451 6453 1
5163 6451 6454 1
5164 6451 6455 1
5165 6456 6457 1
5166 6456 6458 1
5167 6456 6459 1
5168 6456 6460 1
5169 6461 6462 1
5170 6461 6463 1
5171 6461 6464 1
5172 6461 6465 1
5173 6466 6467 1
5174 6466 6468 1
5175 6466 6469 1
5176 6466 6470 1
5177 6471 6472 1
5178 6471 6473 1
5179 6471 6474 1
5180 6471 6475 1
5181 6476 6477 1
5182 6476 6478 1
5183 6476 6479 1
5184 6476 6480 1
5185 6481 6482 1
5186 6481 6483 1
5187 6481 6484 1
5188 6481 6485 1
5189 6486 6487 1
5190 6486 6488 1
5191 6486 6489 1
5192 6486 6490 1
5193 6491 6492 1
5194 6491 6493 1
5195 6491 6494 1
5196 6491 6495 1
5197 6496 6497 1
5198 6496 6498 1
5199 6496 6499 1
5200 6496 6500 1
5201 6501 6502 1
5202 6501 6503 1
5203 6501 6504 1
5204 6501 6505 1
5205 6506 6507 1
5206 6506 6508 1
5207 6506 6509 1
5208 6506 6510 1
5209 6511 6512 1
5210 6511 6513 1
5211 6511 6514 1
5212 6511 6515 1
5213 6516 6517 1
5214 6516 6518 1
5215 6516 6519 1
5216 6516 6520 1
5217 6521 6522 1
5218 6521 6523 1
5219 6521 6524 1
5220 6521 6525 1
5221 6526 6527 1
5222 6526 6528 1
5223 6526 6529 1
5224 6526 6530 1
5225 6531 6532 1
5226 6531 6533 1
5227 6531 6534 1
5228 6531 6535 1
5229 6536 6537 1
5230 6536 6538 1
5231 6536 6539 1
5232 6536 6540 1
5233 6541 6542 1
5234 6541 6543 1
5235 6541 6544 1
5236 6541 6545 1
5237 6546 6547 1
5238 6546 6548 1
5239 6546 6549 1
5240 6546 6550 1
5241 6551 6552 1
5242 6551 6553 1
5243 6551 6554 1
5244 6551 6555 1
5245 6556 6557 1
5246 6556 6558 1
5247 6556 6559 1
5248 6556 6560 1
5249 6561 6562 1
5250 6561 6563 1
5251 6561 6564 1
5252 6561 6565 1
5253 6566 6567 1
5254 6566 6568 1
5255 6566 6569 1
5256 6566 6570 1
5257 6571 6572 1
5258 6571 6573 1
5259 6571 6574 1
5260 6571 6575 1
5261 6576 6577 1
5262 6576 6578 1
5263 6576 6579 1
5264 6576 6580 1
5265 6581 6582 1
5266 6581 6583 1
5267 6581 6584 1
5268 6581 6585 1
5269 6586 6587 1
5270 6586 6588 1
5271 6586 6589 1
5272 6586 6590 1
5273 6591 6592 1
5274 6591 6593 1
5275 6591 6594 1
5276 6591 6595 1
5277 6596 6597 1
5278 6596 6598 1
5279 6596 6599 1
5280 6596 6600 1
5281 6601 6603 1
5282 6601 6604 1
5283 6601 6605 1
5284 6601 6602 1
5285 6606 6607 1
5286 6606 6608 1
5287 6606 6609 1
5288 6606 6610 1
5289 6611 6612 1
5290 6611 6613 1
5291 6611 6614 1
5292 6611 6615 1
5293 6616 6617 1
5294 6616 6618 1
5295 6616 6619 1
5296 6616 6620 1
5297 6621 6622 1
5298 6621 6623 1
5299 6621 6624 1
5300 6621 6625 1
5301 6626 6627 1
5302 6626 6628 1
5303 6626 6629 1
5304 6626 6630 1
5305 6631 6632 1
5306 6631 6633 1
5307 6631 6634 1
5308 6631 6635 1
5309 6636 6637 1
5310 6636 6638 1
5311 6636 6639 1
5312 6636 6640 1
5313 6641 6642 1
5314 6641 6643 1
5315 6641 6644 1
5316 6641 6645 1
5317 6646 6647 1
5318 6646 6648 1
5319 6646 6649 1
5320 6646 6650 1
5321 6651 6652 1
5322 6651 6653 1
5323 6651 6654 1
5324 6651 6655 1
5325 6656 6657 1
5326 6656 6658 1
5327 6656 6659 1
5328 6656 6660 1
5329 6661 6662 1
5330 6661 6663 1
5331 6661 6664 1
5332 6661 6665 1
5333 6666 6667 1
5334 6666 6668 1
5335 6666 6669 1
5336 6666 6670 1
5337 6671 6672 1
5338 6671 6673 1
5339 6671 6674 1
5340 6671 6675 1
5341 6676 6677 1
5342 6676 6678 1
5343 6676 6679 1
5344 6676 6680 1
5345 6681 6682 1
5346 6681 6683 1
5347 6681 6684 1
5348 6681 6685 1
5349 6686 6687 1
5350 6686 6688 1
5351 6686 6689 1
5352 6686 6690 1
5353 6691 6692 1
5354 6691 6693 1
5355 6691 6694 1
5356 6691 6695 1
5357 6696 6697 1
5358 6696 6698 1
5359 6696 6699 1
5360 6696 6700 1
5361 6701 6702 1
5362 6701 6703 1
5363 6701 6704 1
5364 6701 6705 1
5365 6706 6707 1
5366 6706 6708 1
5367 6706 6709 1
5368 6706 6710 1
5369 6711 6712 1
5370 6711 6713 1
5371 6711 6714 1
5372 6711 6715 1
5373 6716 6717 1
5374 6716 6718 1
5375 6716 6719 1
5376 6716 6720 1
5377 6721 6722 1
5378 6721 6723 1
5379 6721 6724 1
5380 6721 6725 1
5381 6726 6727 1
5382 6726 6728 1
5383 6726 6729 1
5384 6726 6730 1
5385 6731 6732 1
5386 6731 6733 1
5387 6731 6734 1
5388 6731 6735 1
5389 6736 6737 1
5390 6736 6738 1
5391 6736 6739 1
5392 6736 6740 1
5393 6741 6742 1
5394 6741 6743 1
5395 6741 6744 1
5396 6741 6745 1
5397 6746 6747 1
5398 6746 6748 1
5399 6746 6749 1
5400 6746 6750 1
5401 6751 6752 1
5402 6751 6753 1
5403 6751 6754 1
5404 6751 6755 1
5405 6756 6757 1
5406 6756 6758 1
5407 6756 6759 1
5408 6756 6760 1
5409 6761 6762 1
5410 6761 6763 1
5411 6761 6764 1
5412 6761 6765 1
5413 6766 6767 1
5414 6766 6768 1
5415 6766 6769 1
5416 6766 6770 1
5417 6771 6774 1
5418 6771 6775 1
5419 6771 6772 1
5420 6771 6773 1
5421 6776 6777 1
5422 6776 6778 1
5423 6776 6779 1
5424 6776 6780 1
5425 6781 6782 1
5426 6781 6783 1
5427 6781 6784 1
5428 6781 6785 1
5429 6786 6787 1
5430 6786 6789 1
5431 6786 6790 1
5432 6786 6788 1
5433 6791 6792 1
5434 6791 6793 1
5435 6791 6794 1
5436 6791 6795 1
5437 6796 6797 1
5438 6796 6798 1
5439 6796 6799 1
5440 6796 6800 1
5441 6801 6802 1
5442 6801 6803 1
5443 6801 6804 1
5444 6801 6805 1
5445 6806 6807 1
5446 6806 6808 1
5447 6806 6809 1
5448 6806 6810 1
5449 6811 6812 1
5450 6811 6813 1
5451 6811 6814 1
5452 6811 6815 1
5453 6816 6817 1
5454 6816 6818 1
5455 6816 6819 1
5456 6816 6820 1
5457 6821 6822 1
5458 6821 6823 1
5459 6821 6824 1
5460 6821 6825 1
5461 6826 6827 1
5462 6826 6828 1
5463 6826 6829 1
5464 6826 6830 1
5465 6831 6832 1
5466 6831 6833 1
5467 6831 6834 1
5468 6831 6835 1
5469 6836 6837 1
5470 6836 6838 1
5471 6836 6839 1
5472 6836 6840 1
5473 6841 6842 1
5474 6841 6843 1
5475 6841 6844 1
5476 6841 6845 1
5477 6846 6847 1
5478 6846 6848 1
5479 6846 6849 1
5480 6846 6850 1
5481 6851 6852 1
5482 6851 6853 1
5483 6851 6854 1
5484 6851 6855 1
5485 6856 6857 1
5486 6856 6858 1
5487 6856 6859 1
5488 6856 6860 1
5489 6861 6862 1
5490 6861 6863 1
5491 6861 6864 1
5492 6861 6865 1
5493 6866 6867 1
5494 6866 6868 1
5495 6866 6869 1
5496 6866 6870 1
5497 6871 6872 1
5498 6871 6873 1
5499 6871 6874 1
5500 6871 6875 1
5501 6876 6877 1
5502 6876 6878 1
5503 6876 6879 1
5504 6876 6880 1
5505 6881 6882 1
5506 6881 6883 1
5507 6881 6884 1
5508 6881 6885 1
5509 6886 6887 1
5510 6886 6888 1
5511 6886 6889 1
5512 6886 6890 1
5513 6891 6892 1
5514 6891 6893 1
5515 6891 6894 1
5516 6891 6895 1
5517 6896 6897 1
5518 6896 6898 1
5519 6896 6899 1
5520 6896 6900 1
5521 6901 6902 1
5522 6901 6903 1
5523 6901 6904 1
5524 6901 6905 1
5525 6906 6907 1
5526 6906 6908 1
5527 6906 6909 1
5528 6906 6910 1
5529 6911 6912 1
5530 6911 6913 1
5531 6911 6914 1
5532 6911 6915 1
5533 6916 6917 1
5534 6916 6918 1
5535 6916 6919 1
5536 6916 6920 1
5537 6921 6922 1
5538 6921 6923 1
5539 6921 6924 1
5540 6921 6925 1
5541 6926 6927 1
5542 6926 6928 1
5543 6926 6929 1
5544 6926 6930 1
5545 6931 6932 1
5546 6931 6933 1
5547 6931 6934 1
5548 6931 6935 1
5549 6936 6939 1
5550 6936 6940 1
5551 6936 6937 1
5552 6936 6938 1
5553 6941 6942 1
5554 6941 6943 1
5555 6941 6944 1
5556 6941 6945 1
5557 6946 6947 1
5558 6946 6948 1
5559 6946 6949 1
5560 6946 6950 1
5561 6951 6952 1
5562 6951 6953 1
5563 6951 6954 1
5564 6951 6955 1
5565 6956 6957 1
5566 6956 6958 1
5567 6956 6959 1
5568 6956 6960 1
5569 6961 6962 1
5570 6961 6963 1
5571 6961 6964 1
5572 6961 6965 1
5573 6966 6967 1
5574 6966 6968 1
5575 6966 6969 1
5576 6966 6970 1
5577 6971 6972 1
5578 6971 6973 1
5579 6971 6974 1
5580 6971 6975 1
5581 6976 6977 1
5582 6976 6978 1
5583 6976 6979 1
5584 6976 6980 1
5585 6981 6982 1
5586 6981 6983 1
5587 6981 6984 1
5588 6981 6985 1
5589 6986 6987 1
5590 6986 6988 1
5591 6986 6989 1
5592 6986 6990 1
5593 6991 6992 1
5594 6991 6993 1
5595 6991 6994 1
5596 6991 6995 1
5597 6996 6997 1
5598 6996 6998 1
5599 6996 6999 1
5600 6996 7000 1
5601 7001 7002 1
5602 7001 7003 1
5603 7001 7004 1
5604 7001 7005 1
5605 7006 7007 1
5606 7006 7008 1
5607 7006 7009 1
5608 7006 7010 1
5609 7011 7012 1
5610 7011 7015 1
5611 7011 7014 1
5612 7011 7013 1
5613 7016 7017 1
5614 7016 7018 1
5615 7016 7019 1
5616 7016 7020 1
5617 7021 7022 1
5618 7021 7023 1
5619 7021 7024 1
5620 7021 7025 1
5621 7026 7027 1
5622 7026 7028 1
5623 7026 7029 1
5624 7026 7030 1
5625 7031 7032 1
5626 7031 7033 1
5627 7031 7034 1
5628 7031 7035 1
5629 7036 7037 1
5630 7036 7038 1
5631 7036 7039 1
5632 7036 7040 1
5633 7041 7042 1
5634 7041 7043 1
5635 7041 7044 1
5636 7041 7045 1
5637 7046 7047 1
5638 7046 7048 1
5639 7046 7049 1
5640 7046 7050 1
5641 7051 7052 1
5642 7051 7053 1
5643 7051 7054 1
5644 7051 7055 1
5645 7056 7057 1
5646 7056 7058 1
5647 7056 7059 1
5648 7056 7060 1
5649 7061 7062 1
5650 7061 7063 1
5651 7061 7064 1
5652 7061 7065 1
5653 7066 7067 1
5654 7066 7068 1
5655 7066 7069 1
5656 7066 7070 1
5657 7071 7072 1
5658 7071 7073 1
5659 7071 7074 1
5660 7071 7075 1
5661 7076 7077 1
5662 7076 7078 1
5663 7076 7079 1
5664 7076 7080 1
5665 7081 7082 1
5666 7081 7083 1
5667 7081 7084 1
5668 7081 7085 1
5669 7086 7087 1
5670 7086 7088 1
5671 7086 7089 1
5672 7086 7090 1
5673 7091 7092 1
5674 7091 7093 1
5675 7091 7094 1
5676 7091 7095 1
5677 7096 7097 1
5678 7096 7098 1
5679 7096 7099 1
5680 7096 7100 1
5681 7101 7102 1
5682 7101 7103 1
5683 7101 7104 1
5684 7101 7105 1
5685 7106 7110 1
5686 7106 7107 1
5687 7106 7108 1
5688 7106 7109 1
5689 7111 7112 1
5690 7111 7113 1
5691 7111 7114 1
5692 7111 7115 1
5693 7116 7117 1
5694 7116 7118 1
5695 7116 7119 1
5696 7116 7120 1
5697 7121 7122 1
5698 7121 7123 1
5699 7121 7124 1
5700 7121 7125 1
5701 7126 7127 1
5702 7126 7128 1
5703 7126 7129 1
5704 7126 7130 1
5705 7131 7132 1
5706 7131 7133 1
5707 7131 7134 1
5708 7131 7135 1
5709 7136 7137 1
5710 7136 7138 1
5711 7136 7139 1
5712 7136 7140 1
5713 7141 7142 1
5714 7141 7143 1
5715 7141 7144 1
5716 7141 7145 1
5717 7146 7147 1
5718 7146 7148 1
5719 7146 7149 1
5720 7146 7150 1
5721 7151 7152 1
5722 7151 7153 1
5723 7151 7154 1
5724 7151 7155 1
5725 7156 7157 1
5726 7156 7158 1
5727 7156 7159 1
5728 7156 7160 1
5729 7161 7162 1
5730 7161 7163 1
5731 7161 7164 1
5732 7161 7165 1
5733 7166 7167 1
5734 7166 7168 1
5735 7166 7169 1
5736 7166 7170 1
5737 7171 7172 1
5738 7171 7173 1
5739 7171 7174 1
5740 7171 7175 1
5741 7176 7177 1
5742 7176 7178 1
5743 7176 7179 1
5744 7176 7180 1
5745 7181 7182 1
5746 7181 7183 1
5747 7181 7184 1
5748 7181 7185 1
5749 7186 7187 1
5750 7186 7188 1
5751 7186 7189 1
5752 7186 7190 1
5753 7191 7192 1
5754 7191 7193 1
5755 7191 7194 1
5756 7191 7195 1
5757 7196 7197 1
5758 7196 7198 1
5759 7196 7199 1
5760 7196 7200 1
5761 7201 7202 1
5762 7201 7203 1
5763 7201 7204 1
5764 7201 7205 1
5765 7206 7207 1
5766 7206 7208 1
5767 7206 7209 1
5768 7206 7210 1
5769 7211 7212 1
5770 7211 7213 1
5771 7211 7214 1
5772 7211 7215 1
5773 7216 7217 1
5774 7216 7218 1
5775 7216 7219 1
5776 7216 7220 1
5777 7221 7222 1
5778 7221 7223 1
5779 7221 7224 1
5780 7221 7225 1
5781 7226 7227 1
5782 7226 7228 1
5783 7226 7229 1
5784 7226 7230 1
5785 7231 7232 1
5786 7231 7233 1
5787 7231 7234 1
5788 7231 7235 1
5789 7236 7237 1
5790 7236 7238 1
5791 7236 7239 1
5792 7236 7240 1
5793 7241 7242 1
5794 7241 7243 1
5795 7241 7244 1
5796 7241 7245 1
5797 7246 7247 1
5798 7246 7248 1
5799 7246 7249 1
5800 7246 7250 1
5801 7251 7252 1
5802 7251 7253 1
5803 7251 7254 1
5804 7251 7255 1
5805 7256 7257 1
5806 7256 7258 1
5807 7256 7259 1
5808 7256 7260 1
5809 7261 7262 1
5810 7261 7263 1
5811 7261 7264 1
5812 7261 7265 1
5813 7266 7267 1
5814 7266 7268 1
5815 7266 7269 1
5816 7266 7270 1
5817 7271 7272 1
5818 7271 7273 1
5819 7271 7274 1
5820 7271 7275 1
5821 7276 7278 1
5822 7276 7279 1
5823 7276 7280 1
5824 7276 7277 1
5825 7281 7282 1
5826 7281 7283 1
5827 7281 7284 1
5828 7281 7285 1
5829 7286 7287 1
5830 7286 7288 1
5831 7286 7289 1
5832 7286 7290 1
5833 7291 7292 1
5834 7291 7293 1
5835 7291 7294 1
5836 7291 7295 1
5837 7296 7297 1
5838 7296 7298 1
5839 7296 7299 1
5840 7296 7300 1
5841 7301 7302 1
5842 7301 7303 1
5843 7301 7304 1
5844 7301 7305 1
5845 7306 7307 1
5846 7306 7308 1
5847 7306 7309 1
5848 7306 7310 1
5849 7311 7312 1
5850 7311 7313 1
5851 7311 7314 1
5852 7311 7315 1
5853 7316 7317 1
5854 7316 7318 1
5855 7316 7319 1
5856 7316 7320 1
5857 7321 7322 1
5858 7321 7323 1
5859 7321 7324 1
5860 7321 7325 1
5861 7326 7327 1
5862 7326 7328 1
5863 7326 7329 1
5864 7326 7330 1
5865 7331 7332 1
5866 7331 7333 1
5867 7331 7334 1
5868 7331 7335 1
5869 7336 7337 1
5870 7336 7338 1
5871 7336 7339 1
5872 7336 7340 1
5873 7341 7342 1
5874 7341 7343 1
5875 7341 7344 1
5876 7341 7345 1
5877 7346 7347 1
5878 7346 7348 1
5879 7346 7349 1
5880 7346 7350 1
5881 7351 7352 1
5882 7351 7353 1
5883 7351 7354 1
5884 7351 7355 1
5885 7356 7359 1
5886 7356 7357 1
5887 7356 7358 1
5888 7356 7360 1
5889 7361 7362 1
5890 7361 7363 1
5891 7361 7364 1
5892 7361 7365 1
5893 7366 7367 1
5894 7366 7368 1
5895 7366 7369 1
5896 7366 7370 1
5897 7371 7372 1
5898 7371 7373 1
5899 7371 7374 1
5900 7371 7375 1
5901 7376 7377 1
5902 7376 7378 1
5903 7376 7379 1
5904 7376 7380 1
5905 7381 7382 1
5906 7381 7383 1
5907 7381 7384 1
5908 7381 7385 1
5909 7386 7387 1
5910 7386 7388 1
5911 7386 7389 1
5912 7386 7390 1
5913 7391 7392 1
5914 7391 7393 1
5915 7391 7394 1
5916 7391 7395 1
5917 7396 7397 1
5918 7396 7398 1
5919 7396 7399 1
5920 7396 7400 1
5921 7401 7404 1
5922 7401 7405 1
5923 7401 7402 1
5924 7401 7403 1
5925 7406 7407 1
5926 7406 7408 1
5927 7406 7409 1
5928 7406 7410 1
5929 7411 7412 1
5930 7411 7413 1
5931 7411 7414 1
5932 7411 7415 1
5933 7416 7417 1
5934 7416 7418 1
5935 7416 7419 1
5936 7416 7420 1
5937 7421 7422 1
5938 7421 7423 1
5939 7421 7424 1
5940 7421 7425 1
5941 7426 7427 1
5942 7426 7428 1
5943 7426 7429 1
5944 7426 7430 1
5945 7431 7432 1
5946 7431 7433 1
5947 7431 7434 1
5948 7431 7435 1
5949 7436 7437 1
5950 7436 7438 1
5951 7436 7439 1
5952 7436 7440 1
5953 7441 7442 1
5954 7441 7443 1
5955 7441 7444 1
5956 7441 7445 1
5957 7446 7448 1
5958 7446 7449 1
5959 7446 7450 1
5960 7446 7447 1
5961 7451 7452 1
5962 7451 7453 1
5963 7451 7454 1
5964 7451 7455 1
5965 7456 7457 1
5966 7456 7458 1
5967 7456 7459 1
5968 7456 7460 1
5969 7461 7462 1
5970 7461 7463 1
5971 7461 7464 1
5972 7461 7465 1
5973 7466 7467 1
5974 7466 7468 1
5975 7466 7469 1
5976 7466 7470 1
5977 7471 7472 1
5978 7471 7473 1
5979 7471 7474 1
5980 7471 7475 1
5981 7476 7477 1
5982 7476 7478 1
5983 7476 7479 1
5984 7476 7480 1
5985 7481 7482 1
5986 7481 7483 1
5987 7481 7484 1
5988 7481 7485 1
5989 7486 7487 1
5990 7486 7488 1
5991 7486 7489 1
5992 7486 7490 1
5993 7491 7492 1
5994 7491 7493 1
5995 7491 7494 1
5996 7491 7495 1
5997 7496 7497 1
5998 7496 7498 1
5999 7496 7499 1
6000 7496 7500 1
6001 7501 7502 1
6002 7501 7503 1
6003 7501 7504 1
6004 7501 7505 1
6005 7506 7507 1
6006 7506 7508 1
6007 7506 7509 1
6008 7506 7510 1
6009 7511 7512 1
6010 7511 7513 1
6011 7511 7514 1
6012 7511 7515 1
6013 7516 7517 1
6014 7516 7518 1
6015 7516 7519 1
6016 7516 7520 1
6017 7521 7522 1
6018 7521 7523 1
6019 7521 7524 1
6020 7521 7525 1
6021 7526 7527 1
6022 7526 7528 1
6023 7526 7529 1
6024 7526 7530 1
6025 7531 7532 1
6026 7531 7533 1
6027 7531 7534 1
6028 7531 7535 1
6029 7536 7537 1
6030 7536 7538 1
6031 7536 7539 1
6032 7536 7540 1
6033 7541 7542 1
6034 7541 7543 1
6035 7541 7544 1
6036 7541 7545 1
6037 7546 7547 1
6038 7546 7548 1
6039 7546 7549 1
6040 7546 7550 1
6041 7551 7552 1
6042 7551 7553 1
6043 7551 7554 1
6044 7551 7555 1
6045 7556 7557 1
6046 7556 7558 1
6047 7556 7559 1
6048 7556 7560 1
6049 7561 7562 1
6050 7561 7563 1
6051 7561 7564 1
6052 7561 7565 1
6053 7566 7567 1
6054 7566 7568 1
6055 7566 7569 1
6056 7566 7570 1
6057 7571 7572 1
6058 7571 7573 1
6059 7571 7574 1
6060 7571 7575 1
6061 7576 7577 1
6062 7576 7578 1
6063 7576 7579 1
6064 7576 7580 1
6065 7581 7582 1
6066 7581 7583 1
6067 7581 7584 1
6068 7581 7585 1
6069 7586 7587 1
6070 7586 7588 1
6071 7586 7589 1
6072 7586 7590 1
6073 7591 7592 1
6074 7591 7593 1
6075 7591 7594 1
6076 7591 7595 1
6077 7596 7597 1
6078 7596 7598 1
6079 7596 7599 1
6080 7596 7600 1
6081 7601 7602 1
6082 7601 7603 1
6083 7601 7604 1
6084 7601 7605 1
6085 7606 7607 1
6086 7606 7608 1
6087 7606 7609 1
6088 7606 7610 1
6089 7611 7614 1
6090 7611 7615 1
6091 7611 7612 1
6092 7611 7613 1
6093 7616 7617 1
6094 7616 7618 1
6095 7616 7619 1
6096 7616 7620 1
6097 7621 7622 1
6098 7621 7623 1
6099 7621 7624 1
6100 7621 7625 1
6101 7626 7627 1
6102 7626 7628 1
6103 7626 7629 1
6104 7626 7630 1
6105 7631 7632 1
6106 7631 7633 1
6107 7631 7634 1
6108 7631 7635 1
6109 7636 7637 1
6110 7636 7638 1
6111 7636 7639 1
6112 7636 7640 1
6113 7641 7642 1
6114 7641 7643 1
6115 7641 7644 1
6116 7641 7645 1
6117 7646 7647 1
6118 7646 7648 1
6119 7646 7649 1
6120 7646 7650 1
6121 7651 7652 1
6122 7651 7653 1
6123 7651 7654 1
6124 7651 7655 1
6125 7656 7657 1
6126 7656 7658 1
6127 7656 7659 1
6128 7656 7660 1
6129 7661 7662 1
6130 7661 7663 1
6131 7661 7664 1
6132 7661 7665 1
6133 7666 7667 1
6134 7666 7668 1
6135 7666 7669 1
6136 7666 7670 1
6137 7671 7672 1
6138 7671 7673 1
6139 7671 7674 1
6140 7671 7675 1
6141 7676 7677 1
6142 7676 7678 1
6143 7676 7679 1
6144 7676 7680 1
6145 7681 7682 1
6146 7681 7683 1
6147 7681 7684 1
6148 7681 7685 1
6149 7686 7687 1
6150 7686 7688 1
6151 7686 7689 1
6152 7686 7690 1
6153 7691 7692 1
6154 7691 7693 1
6155 7691 7694 1
6156 7691 7695 1
6157 7696 7697 1
6158 7696 7698 1
6159 7696 7699 1
6160 7696 7700 1
6161 7701 7702 1
6162 7701 7703 1
6163 7701 7704 1
6164 7701 7705 1
6165 7706 7707 1
6166 7706 7708 1
6167 7706 7709 1
6168 7706 7710 1
6169 7711 7712 1
6170 7711 7713 1
6171 7711 7714 1
6172 7711 7715 1
6173 7716 7717 1
6174 7716 7718 1
6175 7716 7719 1
6176 7716 7720 1
6177 7721 7722 1
6178 7721 7723 1
6179 7721 7724 1
6180 7721 7725 1
6181 7726 7727 1
6182 7726 7728 1
6183 7726 7729 1
6184 7726 7730 1
6185 7731 7732 1
6186 7731 7733 1
6187 7731 7734 1
6188 7731 7735 1
6189 7736 7737 1
6190 7736 7738 1
6191 7736 7739 1
6192 7736 7740 1
6193 7741 7742 1
6194 7741 7743 1
6195 7741 7744 1
6196 7741 7745 1
6197 7746 7749 1
6198 7746 7750 1
6199 7746 7747 1
6200 7746 7748 1
6201 7751 7752 1
6202 7751 7753 1
6203 7751 7755 1
6204 7751 7754 1
6205 7756 7757 1
6206 7756 7758 1
6207 7756 7759 1
6208 7756 7760 1
6209 7761 7762 1
6210 7761 7763 1
6211 7761 7764 1
6212 7761 7765 1
6213 7766 7767 1
6214 7766 7768 1
6215 7766 7769 1
6216 7766 7770 1
6217 7771 7772 1
6218 7771 7773 1
6219 7771 7774 1
6220 7771 7775 1
6221 7776 7777 1
6222 7776 7778 1
6223 7776 7779 1
6224 7776 7780 1
6225 7781 7782 1
6226 7781 7783 1
6227 7781 7784 1
6228 7781 7785 1
6229 7786 7788 1
6230 7786 7789 1
6231 7786 7790 1
6232 7786 7787 1
6233 7791 7792 1
6234 7791 7793 1
6235 7791 7794 1
6236 7791 7795 1
6237 7796 7797 1
6238 7796 7798 1
6239 7796 7799 1
6240 7796 7800 1
6241 7801 7802 1
6242 7801 7803 1
6243 7801 7804 1
6244 7801 7805 1
6245 7806 7807 1
6246 7806 7808 1
6247 7806 7809 1
6248 7806 7810 1
6249 7811 7812 1
6250 7811 7813 1
6251 7811 7814 1
6252 7811 7815 1
6253 7816 7817 1
6254 7816 7818 1
6255 7816 7819 1
6256 7816 7820 1
6257 7821 7822 1
6258 7821 7823 1
6259 7821 7824 1
6260 7821 7825 1
6261 7826 7827 1
6262 7826 7828 1
6263 7826 7829 1
6264 7826 7830 1
6265 7831 7832 1
6266 7831 7833 1
6267 7831 7834 1
6268 7831 7835 1
6269 7836 7837 1
6270 7836 7838 1
6271 7836 7839 1
6272 7836 7840 1
6273 7841 7842 1
6274 7841 7843 1
6275 7841 7844 1
6276 7841 7845 1
6277 7846 7847 1
6278 7846 7848 1
6279 7846 7849 1
6280 7846 7850 1
6281 7851 7852 1
6282 7851 7853 1
6283 7851 7854 1
6284 7851 7855 1
6285 7856 7857 1
6286 7856 7858 1
6287 7856 7859 1
6288 7856 7860 1
6289 7861 7862 1
6290 7861 7863 1
6291 7861 7864 1
6292 7861 7865 1
6293 7866 7869 1
6294 7866 7870 1
6295 7866 7867 1
6296 7866 7868 1
6297 7871 7875 1
6298 7871 7872 1
6299 7871 7873 1
6300 7871 7874 1
6301 7876 7877 1
6302 7876 7878 1
6303 7876 7879 1
6304 7876 7880 1
6305 7881 7882 1
6306 7881 7883 1
6307 7881 7884 1
6308 7881 7885 1
6309 7886 7887 1
6310 7886 7888 1
6311 7886 7889 1
6312 7886 7890 1
6313 7891 7892 1
6314 7891 7893 1
6315 7891 7894 1
6316 7891 7895 1
6317 7896 7897 1
6318 7896 7898 1
6319 7896 7899 1
6320 7896 7900 1
6321 7901 7902 1
6322 7901 7903 1
6323 7901 7904 1
6324 7901 7905 1
6325 7906 7907 1
6326 7906 7908 1
6327 7906 7909 1
6328 7906 7910 1
6329 7911 7912 1
6330 7911 7913 1
6331 7911 7914 1
6332 7911 7915 1
6333 7916 7917 1
6334 7916 7918 1
6335 7916 7919 1
6336 7916 7920 1
6337 7921 7922 1
6338 7921 7923 1
6339 7921 7924 1
6340 7921 7925 1
6341 7926 7927 1
6342 7926 7928 1
6343 7926 7929 1
6344 7926 7930 1
6345 7931 7932 1
6346 7931 7933 1
6347 7931 7934 1
6348 7931 7935 1
6349 7936 7937 1
6350 7936 7938 1
6351 7936 7939 1
6352 7936 7940 1
6353 7941 7942 1
6354 7941 7943 1
6355 7941 7944 1
6356 7941 7945 1
6357 7946 7947 1
6358 7946 7948 1
6359 7946 7949 1
6360 7946 7950 1
6361 7951 7952 1
6362 7951 7953 1
6363 7951 7954 1
6364 7951 7955 1
6365 7956 7959 1
6366 7956 7960 1
6367 7956 7957 1
6368 7956 7958 1
6369 7961 7962 1
6370 7961 7963 1
6371 7961 7964 1
6372 7961 7965 1
6373 7966 7967 1
6374 7966 7968 1
6375 7966 7969 1
6376 7966 7970 1
6377 7971 7972 1
6378 7971 7973 1
6379 7971 7974 1
6380 7971 7975 1
6381 7976 7977 1
6382 7976 7978 1
6383 7976 7979 1
6384 7976 7980 1
6385 7981 7982 1
6386 7981 7983 1
6387 7981 7984 1
6388 7981 7985 1
6389 7986 7987 1
6390 7986 7988 1
6391 7986 7989 1
6392 7986 7990 1
6393 7991 7992 1
6394 7991 7993 1
6395 7991 7994 1
6396 7991 7995 1
6397 7996 7997 1
6398 7996 7998 1
6399 7996 7999 1
6400 7996 8000 1
6401 8001 8002 1
6402 8001 8003 1
6403 8001 8004 1
6404 8001 8005 1
6405 8006 8007 1
6406 8006 8008 1
6407 8006 8009 1
6408 8006 8010 1
6409 8011 8012 1
6410 8011 8013 1
6411 8011 8014 1
6412 8011 8015 1
6413 8016 8017 1
6414 8016 8018 1
6415 8016 8019 1
6416 8016 8020 1
6417 8021 8022 1
6418 8021 8023 1
6419 8021 8024 1
6420 8021 8025 1
6421 8026 8027 1
6422 8026 8028 1
6423 8026 8029 1
6424 8026 8030 1
6425 8031 8032 1
6426 8031 8033 1
6427 8031 8034 1
6428 8031 8035 1
6429 8036 8037 1
6430 8036 8038 1
6431 8036 8039 1
6432 8036 8040 1
6433 8041 8043 1
6434 8041 8044 1
6435 8041 8045 1
6436 8041 8042 1
6437 8046 8047 1
6438 8046 8048 1
6439 8046 8049 1
6440 8046 8050 1
6441 8051 8052 1
6442 8051 8053 1
6443 8051 8054 1
6444 8051 8055 1
6445 8056 8057 1
6446 8056 8058 1
6447 8056 8059 1
6448 8056 8060 1
6449 8061 8062 1
6450 8061 8063 1
6451 8061 8064 1
6452 8061 8065 1
6453 8066 8067 1
6454 8066 8068 1
6455 8066 8069 1
6456 8066 8070 1
6457 8071 8072 1
6458 8071 8073 1
6459 8071 8074 1
6460 8071 8075 1
6461 8076 8077 1
6462 8076 8078 1
6463 8076 8079 1
6464 8076 8080 1
6465 8081 8085 1
6466 8081 8082 1
6467 8081 8083 1
6468 8081 8084 1
6469 8086 8087 1
6470 8086 8088 1
6471 8086 8089 1
6472 8086 8090 1
6473 8091 8092 1
6474 8091 8093 1
6475 8091 8094 1
6476 8091 8095 1
6477 8096 8097 1
6478 8096 8098 1
6479 8096 8099 1
6480 8096 8100 1
6481 8101 8102 1
6482 8101 8103 1
6483 8101 8104 1
6484 8101 8105 1
6485 8106 8107 1
6486 8106 8108 1
6487 8106 8109 1
6488 8106 8110 1
6489 8111 8112 1
6490 8111 8113 1
6491 8111 8114 1
6492 8111 8115 1
6493 8116 8117 1
6494 8116 8118 1
6495 8116 8119 1
6496 8116 8120 1
6497 8121 8122 1
6498 8121 8123 1
6499 8121 8124 1
6500 8121 8125 1
6501 8126 8127 1
6502 8126 8128 1
6503 8126 8129 1
6504 8126 8130 1
6505 8131 8132 1
6506 8131 8133 1
6507 8131 8134 1
6508 8131 8135 1
6509 8136 8137 1
6510 8136 8138 1
6511 8136 8139 1
6512 8136 8140 1
6513 8141 8142 1
6514 8141 8143 1
6515 8141 8144 1
6516 8141 8145 1
6517 8146 8147 1
6518 8146 8148 1
6519 8146 8149 1
6520 8146 8150 1
6521 8151 8152 1
6522 8151 8153 1
6523 8151 8154 1
6524 8151 8155 1
6525 8156 8157 1
6526 8156 8158 1
6527 8156 8159 1
6528 8156 8160 1
6529 8161 8162 1
6530 8161 8163 1
6531 8161 8164 1
6532 8161 8165 1
6533 8166 8167 1
6534 8166 8168 1
6535 8166 8169 1
6536 8166 8170 1
6537 8171 8172 1
6538 8171 8173 1
6539 8171 8174 1
6540 8171 8175 1
6541 8176 8177 1
6542 8176 8178 1
6543 8176 8179 1
6544 8176 8180 1
6545 8181 8182 1
6546 8181 8183 1
6547 8181 8184 1
6548 8181 8185 1
6549 8186 8187 1
6550 8186 8188 1
6551 8186 8189 1
6552 8186 8190 1
6553 8191 8192 1
6554 8191 8193 1
6555 8191 8194 1
6556 8191 8195 1
6557 8196 8197 1
6558 8196 8198 1
6559 8196 8199 1
6560 8196 8200 1
6561 8201 8202 1
6562 8201 8203 1
6563 8201 8204 1
6564 8201 8205 1
6565 8206 8210 1
6566 8206 8209 1
6567 8206 8208 1
6568 8206 8207 1
6569 8211 8212 1
6570 8211 8213 1
6571 8211 8214 1
6572 8211 8215 1
6573 8216 8217 1
6574 8216 8218 1
6575 8216 8219 1
6576 8216 8220 1
6577 8221 8222 1
6578 8221 8223 1
6579 8221 8224 1
6580 8221 8225 1
6581 8226 8227 1
6582 8226 8228 1
6583 8226 8229 1
6584 8226 8230 1
6585 8231 8232 1
6586 8231 8233 1
6587 8231 8234 1
6588 8231 8235 1
6589 8236 8237 1
6590 8236 8238 1
6591 8236 8239 1
6592 8236 8240 1
6593 8241 8242 1
6594 8241 8243 1
6595 8241 8244 1
6596 8241 8245 1
6597 8246 8247 1
6598 8246 8248 1
6599 8246 8249 1
6600 8246 8250 1
6601 8251 8252 1
6602 8251 8253 1
6603 8251 8254 1
6604 8251 8255 1
6605 8256 8257 1
6606 8256 8258 1
6607 8256 8259 1
6608 8256 8260 1
6609 8261 8262 1
6610 8261 8263 1
6611 8261 8264 1
6612 8261 8265 1
6613 8266 8267 1
6614 8266 8268 1
6615 8266 8269 1
6616 8266 8270 1
6617 8271 8272 1
6618 8271 8273 1
6619 8271 8274 1
6620 8271 8275 1
6621 8276 8277 1
6622 8276 8278 1
6623 8276 8279 1
6624 8276 8280 1
6625 8281 8282 1
6626 8281 8283 1
6627 8281 8284 1
6628 8281 8285 1
6629 8286 8287 1
6630 8286 8288 1
6631 8286 8289 1
6632 8286 8290 1
6633 8291 8295 1
6634 8291 8292 1
6635 8291 8293 1
6636 8291 8294 1
6637 8296 8297 1
6638 8296 8298 1
6639 8296 8299 1
6640 8296 8300 1
6641 8301 8302 1
6642 8301 8303 1
6643 8301 8305 1
6644 8301 8304 1
6645 8306 8307 1
6646 8306 8308 1
6647 8306 8309 1
6648 8306 8310 1
6649 8311 8312 1
6650 8311 8313 1
6651 8311 8314 1
6652 8311 8315 1
6653 8316 8317 1
6654 8316 8318 1
6655 8316 8319 1
6656 8316 8320 1
6657 8321 8322 1
6658 8321 8323 1
6659 8321 8324 1
6660 8321 8325 1
6661 8326 8327 1
6662 8326 8328 1
6663 8326 8329 1
6664 8326 8330 1
6665 8331 8332 1
6666 8331 8333 1
6667 8331 8334 1
6668 8331 8335 1
6669 8336 8337 1
6670 8336 8338 1
6671 8336 8339 1
6672 8336 8340 1
6673 8341 8342 1
6674 8341 8343 1
6675 8341 8344 1
6676 8341 8345 1
6677 8346 8347 1
6678 8346 8348 1
6679 8346 8349 1
6680 8346 8350 1
6681 8351 8352 1
6682 8351 8353 1
6683 8351 8354 1
6684 8351 8355 1
6685 8356 8357 1
6686 8356 8358 1
6687 8356 8359 1
6688 8356 8360 1
6689 8361 8362 1
6690 8361 8363 1
6691 8361 8364 1
6692 8361 8365 1
6693 8366 8367 1
6694 8366 8368 1
6695 8366 8369 1
6696 8366 8370 1
6697 8371 8372 1
6698 8371 8373 1
6699 8371 8374 1
6700 8371 8375 1
6701 8376 8379 1
6702 8376 8380 1
6703 8376 8377 1
6704 8376 8378 1
6705 8381 8382 1
6706 8381 8383 1
6707 8381 8384 1
6708 8381 8385 1
6709 8386 8387 1
6710 8386 8388 1
6711 8386 8389 1
6712 8386 8390 1
6713 8391 8392 1
6714 8391 8393 1
6715 8391 8394 1
6716 8391 8395 1
6717 8396 8397 1
6718 8396 8398 1
6719 8396 8399 1
6720 8396 8400 1
6721 8401 8402 1
6722 8401 8403 1
6723 8401 8404 1
6724 8401 8405 1
6725 8406 8407 1
6726 8406 8408 1
6727 8406 8409 1
6728 8406 8410 1
6729 8411 8412 1
6730 8411 8413 1
6731 8411 8414 1
6732 8411 8415 1
6733 8416 8417 1
6734 8416 8418 1
6735 8416 8419 1
6736 8416 8420 1
6737 8421 8422 1
6738 8421 8423 1
6739 8421 8424 1
6740 8421 8425 1
6741 8426 8427 1
6742 8426 8428 1
6743 8426 8429 1
6744 8426 8430 1
6745 8431 8432 1
6746 8431 8433 1
6747 8431 8434 1
6748 8431 8435 1
6749 8436 8437 1
6750 8436 8438 1
6751 8436 8439 1
6752 8436 8440 1
6753 8441 8442 1
6754 8441 8443 1
6755 8441 8444 1
6756 8441 8445 1
6757 8446 8447 1
6758 8446 8448 1
6759 8446 8449 1
6760 8446 8450 1
6761 8451 8452 1
6762 8451 8453 1
6763 8451 8454 1
6764 8451 8455 1
6765 8456 8457 1
6766 8456 8458 1
6767 8456 8459 1
6768 8456 8460 1
6769 8461 8463 1
6770 8461 8464 1
6771 8461 8465 1
6772 8461 8462 1
6773 8466 8467 1
6774 8466 8468 1
6775 8466 8469 1
6776 8466 8470 1
6777 8471 8472 1
6778 8471 8473 1
6779 8471 8474 1
6780 8471 8475 1
6781 8476 8477 1
6782 8476 8478 1
6783 8476 8479 1
6784 8476 8480 1
6785 8481 8482 1
6786 8481 8483 1
6787 8481 8484 1
6788 8481 8485 1
6789 8486 8487 1
6790 8486 8488 1
6791 8486 8489 1
6792 8486 8490 1
6793 8491 8492 1
6794 8491 8493 1
6795 8491 8494 1
6796 8491 8495 1
6797 8496 8497 1
6798 8496 8498 1
6799 8496 8499 1
6800 8496 8500 1
6801 8501 8505 1
6802 8501 8502 1
6803 8501 8503 1
6804 8501 8504 1
6805 8506 8507 1
6806 8506 8508 1
6807 8506 8509 1
6808 8506 8510 1
6809 8511 8512 1
6810 8511 8513 1
6811 8511 8514 1
6812 8511 8515 1
6813 8516 8517 1
6814 8516 8518 1
6815 8516 8519 1
6816 8516 8520 1
6817 8521 8522 1
6818 8521 8523 1
6819 8521 8524 1
6820 8521 8525 1
6821 8526 8527 1
6822 8526 8528 1
6823 8526 8529 1
6824 8526 8530 1
6825 8531 8532 1
6826 8531 8533 1
6827 8531 8534 1
6828 8531 8535 1
6829 8536 8537 1
6830 8536 8538 1
6831 8536 8539 1
6832 8536 8540 1
6833 8541 8542 1
6834 8541 8543 1
6835 8541 8544 1
6836 8541 8545 1
6837 8546 8547 1
6838 8546 8548 1
6839 8546 8549 1
6840 8546 8550 1
6841 8551 8552 1
6842 8551 8553 1
6843 8551 8554 1
6844 8551 8555 1
6845 8556 8557 1
6846 8556 8558 1
6847 8556 8559 1
6848 8556 8560 1
6849 8561 8562 1
6850 8561 8563 1
6851 8561 8564 1
6852 8561 8565 1
6853 8566 8567 1
6854 8566 8568 1
6855 8566 8569 1
6856 8566 8570 1
6857 8571 8572 1
6858 8571 8573 1
6859 8571 8574 1
6860 8571 8575 1
6861 8576 8577 1
6862 8576 8578 1
6863 8576 8579 1
6864 8576 8580 1
6865 8581 8582 1
6866 8581 8583 1
6867 8581 8584 1
6868 8581 8585 1
6869 8586 8587 1
6870 8586 8588 1
6871 8586 8589 1
6872 8586 8590 1
6873 8591 8592 1
6874 8591 8593 1
6875 8591 8594 1
6876 8591 8595 1
6877 8596 8597 1
6878 8596 8598 1
6879 8596 8599 1
6880 8596 8600 1
6881 8601 8602 1
6882 8601 8603 1
6883 8601 8604 1
6884 8601 8605 1
6885 8606 8607 1
6886 8606 8608 1
6887 8606 8609 1
6888 8606 8610 1
6889 8611 8612 1
6890 8611 8613 1
6891 8611 8614 1
6892 8611 8615 1
6893 8616 8617 1
6894 8616 8618 1
6895 8616 8619 1
6896 8616 8620 1
6897 8621 8622 1
6898 8621 8623 1
6899 8621 8624 1
6900 8621 8625 1
6901 8626 8627 1
6902 8626 8628 1
6903 8626 8629 1
6904 8626 8630 1
6905 8631 8632 1
6906 8631 8633 1
6907 8631 8634 1
6908 8631 8635 1
6909 8636 8637 1
6910 8636 8638 1
6911 8636 8639 1
6912 8636 8640 1
6913 8641 8642 1
6914 8641 8643 1
6915 8641 8644 1
6916 8641 8645 1
6917 8646 8647 1
6918 8646 8648 1
6919 8646 8649 1
6920 8646 8650 1
6921 8651 8652 1
6922 8651 8653 1
6923 8651 8654 1
6924 8651 8655 1
6925 8656 8657 1
6926 8656 8658 1
6927 8656 8659 1
6928 8656 8660 1
6929 8661 8662 1
6930 8661 8663 1
6931 8661 8664 1
6932 8661 8665 1
6933 8666 8667 1
6934 8666 8668 1
6935 8666 8669 1
6936 8666 8670 1
6937 8671 8672 1
6938 8671 8673 1
6939 8671 8674 1
6940 8671 8675 1
6941 8676 8677 1
6942 8676 8678 1
6943 8676 8679 1
6944 8676 8680 1
6945 8681 8682 1
6946 8681 8683 1
6947 8681 8684 1
6948 8681 8685 1
6949 8686 8687 1
6950 8686 8688 1
6951 8686 8689 1
6952 8686 8690 1
6953 8691 8692 1
6954 8691 8693 1
6955 8691 8694 1
6956 8691 8695 1
6957 8696 8697 1
6958 8696 8698 1
6959 8696 8699 1
6960 8696 8700 1
6961 8701 8702 1
6962 8701 8703 1
6963 8701 8704 1
6964 8701 8705 1
6965 8706 8707 1
6966 8706 8708 1
6967 8706 8709 1
6968 8706 8710 1
6969 8711 8715 1
6970 8711 8712 1
6971 8711 8713 1
6972 8711 8714 1
6973 8716 8717 1
6974 8716 8718 1
6975 8716 8719 1
6976 8716 8720 1
6977 8721 8722 1
6978 8721 8723 1
6979 8721 8724 1
6980 8721 8725 1
6981 8726 8727 1
6982 8726 8728 1
6983 8726 8729 1
6984 8726 8730 1
6985 8731 8732 1
6986 8731 8733 1
6987 8731 8734 1
6988 8731 8735 1
6989 8736 8737 1
6990 8736 8738 1
6991 8736 8739 1
6992 8736 8740 1
6993 8741 8742 1
6994 8741 8743 1
6995 8741 8744 1
6996 8741 8745 1
6997 8746 8747 1
6998 8746 8748 1
6999 8746 8749 1
7000 8746 8750 1
7001 8751 8752 1
7002 8751 8753 1
7003 8751 8754 1
7004 8751 8755 1
7005 8756 8757 1
7006 8756 8758 1
7007 8756 8759 1
7008 8756 8760 1
7009 8761 8762 1
7010 8761 8763 1
7011 8761 8764 1
7012 8761 8765 1
7013 8766 8767 1
7014 8766 8768 1
7015 8766 8769 1
7016 8766 8770 1
7017 8771 8772 1
7018 8771 8773 1
7019 8771 8774 1
7020 8771 8775 1
7021 8776 8777 1
7022 8776 8778 1
7023 8776 8779 1
7024 8776 8780 1
7025 8781 8782 1
7026 8781 8783 1
7027 8781 8784 1
7028 8781 8785 1
7029 8786 8787 1
7030 8786 8788 1
7031 8786 8789 1
7032 8786 8790 1
7033 8791 8792 1
7034 8791 8793 1
7035 8791 8794 1
7036 8791 8795 1
7037 8796 8799 1
7038 8796 8800 1
7039 8796 8797 1
7040 8796 8798 1
7041 8801 8802 1
7042 8801 8803 1
7043 8801 8804 1
7044 8801 8805 1
7045 8806 8807 1
7046 8806 8808 1
7047 8806 8809 1
7048 8806 8810 1
7049 8811 8812 1
7050 8811 8813 1
7051 8811 8814 1
7052 8811 8815 1
7053 8816 8817 1
7054 8816 8818 1
7055 8816 8819 1
7056 8816 8820 1
7057 8821 8822 1
7058 8821 8823 1
7059 8821 8824 1
7060 8821 8825 1
7061 8826 8827 1
7062 8826 8828 1
7063 8826 8829 1
7064 8826 8830 1
7065 8831 8832 1
7066 8831 8833 1
7067 8831 8834 1
7068 8831 8835 1
7069 8836 8837 1
7070 8836 8838 1
7071 8836 8839 1
7072 8836 8840 1
7073 8841 8842 1
7074 8841 8843 1
7075 8841 8844 1
7076 8841 8845 1
7077 8846 8847 1
7078 8846 8848 1
7079 8846 8849 1
7080 8846 8850 1
7081 8851 8852 1
7082 8851 8853 1
7083 8851 8854 1
7084 8851 8855 1
7085 8856 8857 1
7086 8856 8858 1
7087 8856 8859 1
7088 8856 8860 1
7089 8861 8862 1
7090 8861 8863 1
7091 8861 8864 1
7092 8861 8865 1
7093 8866 8867 1
7094 8866 8868 1
7095 8866 8869 1
7096 8866 8870 1
7097 8871 8872 1
7098 8871 8873 1
7099 8871 8874 1
7100 8871 8875 1
7101 8876 8877 1
7102 8876 8878 1
7103 8876 8879 1
7104 8876 8880 1
7105 8881 8883 1
7106 8881 8884 1
7107 8881 8885 1
7108 8881 8882 1
7109 8886 8887 1
7110 8886 8888 1
7111 8886 8889 1
7112 8886 8890 1
7113 8891 8892 1
7114 8891 8893 1
7115 8891 8894 1
7116 8891 8895 1
7117 8896 8897 1
7118 8896 8898 1
7119 8896 8899 1
7120 8896 8900 1
7121 8901 8902 1
7122 8901 8903 1
7123 8901 8904 1
7124 8901 8905 1
7125 8906 8907 1
7126 8906 8908 1
7127 8906 8909 1
7128 8906 8910 1
7129 8911 8912 1
7130 8911 8913 1
7131 8911 8914 1
7132 8911 8915 1
7133 8916 8917 1
7134 8916 8918 1
7135 8916 8919 1
7136 8916 8920 1
7137 8921 8925 1
7138 8921 8922 1
7139 8921 8923 1
7140 8921 8924 1
7141 8926 8927 1
7142 8926 8928 1
7143 8926 8929 1
7144 8926 8930 1
7145 8931 8932 1
7146 8931 8933 1
7147 8931 8934 1
7148 8931 8935 1
7149 8936 8937 1
7150 8936 8938 1
7151 8936 8939 1
7152 8936 8940 1
7153 8941 8942 1
7154 8941 8943 1
7155 8941 8944 1
7156 8941 8945 1
7157 8946 8947 1
7158 8946 8948 1
7159 8946 8949 1
7160 8946 8950 1
7161 8951 8952 1
7162 8951 8953 1
7163 8951 8954 1
7164 8951 8955 1
7165 8956 8957 1
7166 8956 8958 1
7167 8956 8959 1
7168 8956 8960 1
7169 8961 8962 1
7170 8961 8963 1
7171 8961 8964 1
7172 8961 8965 1
7173 8966 8967 1
7174 8966 8968 1
7175 8966 8969 1
7176 8966 8970 1
7177 8971 8972 1
7178 8971 8973 1
7179 8971 8974 1
7180 8971 8975 1
7181 8976 8977 1
7182 8976 8978 1
7183 8976 8979 1
7184 8976 8980 1
7185 8981 8982 1
7186 8981 8983 1
7187 8981 8984 1
7188 8981 8985 1
7189 8986 8987 1
7190 8986 8988 1
7191 8986 8989 1
7192 8986 8990 1
7193 8991 8992 1
7194 8991 8993 1
7195 8991 8994 1
7196 8991 8995 1
7197 8996 8997 1
7198 8996 8998 1
7199 8996 8999 1
7200 8996 9000 1
7201 9001 9002 1
7202 9001 9003 1
7203 9001 9004 1
7204 9001 9005 1
7205 9006 9007 1
7206 9006 9008 1
7207 9006 9009 1
7208 9006 9010 1
7209 9011 9012 1
7210 9011 9013 1
7211 9011 9014 1
7212 9011 9015 1
7213 9016 9017 1
7214 9016 9018 1
7215 9016 9019 1
7216 9016 9020 1
7217 9021 9022 1
7218 9021 9023 1
7219 9021 9024 1
7220 9021 9025 1
7221 9026 9027 1
7222 9026 9028 1
7223 9026 9029 1
7224 9026 9030 1
7225 9031 9032 1
7226 9031 9033 1
7227 9031 9034 1
7228 9031 9035 1
7229 9036 9037 1
7230 9036 9038 1
7231 9036 9039 1
7232 9036 9040 1
7233 9041 9042 1
7234 9041 9043 1
7235 9041 9044 1
7236 9041 9045 1
7237 9046 9047 1
7238 9046 9048 1
7239 9046 9049 1
7240 9046 9050 1
7241 9051 9052 1
7242 9051 9053 1
7243 9051 9054 1
7244 9051 9055 1
7245 9056 9057 1
7246 9056 9058 1
7247 9056 9059 1
7248 9056 9060 1
7249 9061 9062 1
7250 9061 9063 1
7251 9061 9064 1
7252 9061 9065 1
7253 9066 9067 1
7254 9066 9068 1
7255 9066 9069 1
7256 9066 9070 1
7257 9071 9072 1
7258 9071 9073 1
7259 9071 9074 1
7260 9071 9075 1
7261 9076 9077 1
7262 9076 9078 1
7263 9076 9079 1
7264 9076 9080 1
7265 9081 9082 1
7266 9081 9083 1
7267 9081 9084 1
7268 9081 9085 1
7269 9086 9088 1
7270 9086 9089 1
7271 9086 9090 1
7272 9086 9087 1
7273 9091 9092 1
7274 9091 9093 1
7275 9091 9094 1
7276 9091 9095 1
7277 9096 9097 1
7278 9096 9098 1
7279 9096 9099 1
7280 9096 9100 1
7281 9101 9103 1
7282 9101 9104 1
7283 9101 9105 1
7284 9101 9102 1
7285 9106 9107 1
7286 9106 9108 1
7287 9106 9109 1
7288 9106 9110 1
7289 9111 9112 1
7290 9111 9113 1
7291 9111 9114 1
7292 9111 9115 1
7293 9116 9117 1
7294 9116 9118 1
7295 9116 9119 1
7296 9116 9120 1
7297 9121 9122 1
7298 9121 9123 1
7299 9121 9124 1
7300 9121 9125 1
7301 9126 9127 1
7302 9126 9128 1
7303 9126 9129 1
7304 9126 9130 1
7305 9131 9132 1
7306 9131 9133 1
7307 9131 9134 1
7308 9131 9135 1
7309 9136 9137 1
7310 9136 9138 1
7311 9136 9139 1
7312 9136 9140 1
7313 9141 9142 1
7314 9141 9143 1
7315 9141 9144 1
7316 9141 9145 1
7317 9146 9147 1
7318 9146 9148 1
7319 9146 9149 1
7320 9146 9150 1
7321 9151 9152 1
7322 9151 9153 1
7323 9151 9154 1
7324 9151 9155 1
7325 9156 9157 1
7326 9156 9158 1
7327 9156 9159 1
7328 9156 9160 1
7329 9161 9162 1
7330 9161 9163 1
7331 9161 9164 1
7332 9161 9165 1
7333 9166 9167 1
7334 9166 9168 1
7335 9166 9169 1
7336 9166 9170 1
7337 9171 9172 1
7338 9171 9173 1
7339 9171 9174 1
7340 9171 9175 1
7341 9176 9177 1
7342 9176 9178 1
7343 9176 9179 1
7344 9176 9180 1
7345 9181 9182 1
7346 9181 9183 1
7347 9181 9184 1
7348 9181 9185 1
7349 9186 9187 1
7350 9186 9188 1
7351 9186 9189 1
7352 9186 9190 1
7353 9191 9192 1
7354 9191 9193 1
7355 9191 9194 1
7356 9191 9195 1
7357 9196 9197 1
7358 9196 9198 1
7359 9196 9199 1
7360 9196 9200 1
7361 9201 9202 1
7362 9201 9203 1
7363 9201 9204 1
7364 9201 9205 1
7365 9206 9207 1
7366 9206 9208 1
7367 9206 9209 1
7368 9206 9210 1
7369 9211 9212 1
7370 9211 9213 1
7371 9211 9214 1
7372 9211 9215 1
7373 9216 9217 1
7374 9216 9218 1
7375 9216 9219 1
7376 9216 9220 1
7377 9221 9222 1
7378 9221 9223 1
7379 9221 9224 1
7380 9221 9225 1
7381 9226 9227 1
7382 9226 9228 1
7383 9226 9229 1
7384 9226 9230 1
7385 9231 9232 1
7386 9231 9233 1
7387 9231 9234 1
7388 9231 9235 1
7389 9236 9237 1
7390 9236 9238 1
7391 9236 9239 1
7392 9236 9240 1
7393 9241 9242 1
7394 9241 9243 1
7395 9241 9244 1
7396 9241 9245 1
7397 9246 9247 1
7398 9246 9248 1
7399 9246 9249 1
7400 9246 9250 1
7401 9251 9252 1
7402 9251 9253 1
7403 9251 9254 1
7404 9251 9255 1
7405 9256 9257 1
7406 9256 9258 1
7407 9256 9259 1
7408 9256 9260 1
7409 9261 9262 1
7410 9261 9263 1
7411 9261 9264 1
7412 9261 9265 1
7413 9266 9267 1
7414 9266 9268 1
7415 9266 9269 1
7416 9266 9270 1
7417 9271 9272 1
7418 9271 9273 1
7419 9271 9274 1
7420 9271 9275 1
7421 9276 9277 1
7422 9276 9278 1
7423 9276 9279 1
7424 9276 9280 1
7425 9281 9282 1
7426 9281 9283 1
7427 9281 9284 1
7428 9281 9285 1
7429 9286 9287 1
7430 9286 9288 1
7431 9286 9289 1
7432 9286 9290 1
7433 9291 9294 1
7434 9291 9292 1
7435 9291 9293 1
7436 9291 9295 1
7437 9296 9300 1
7438 9296 9297 1
7439 9296 9298 1
7440 9296 9299 1
7441 9301 9302 1
7442 9301 9303 1
7443 9301 9304 1
7444 9301 9305 1
7445 9306 9307 1
7446 9306 9308 1
7447 9306 9309 1
7448 9306 9310 1
7449 9311 9312 1
7450 9311 9313 1
7451 9311 9314 1
7452 9311 9315 1
7453 9316 9317 1
7454 9316 9318 1
7455 9316 9319 1
7456 9316 9320 1
7457 9321 9322 1
7458 9321 9323 1
7459 9321 9324 1
7460 9321 9325 1
7461 9326 9327 1
7462 9326 9328 1
7463 9326 9329 1
7464 9326 9330 1
7465 9331 9332 1
7466 9331 9333 1
7467 9331 9334 1
7468 9331 9335 1
7469 9336 9337 1
7470 9336 9338 1
7471 9336 9339 1
7472 9336 9340 1
7473 9341 9342 1
7474 9341 9343 1
7475 9341 9344 1
7476 9341 9345 1
7477 9346 9347 1
7478 9346 9348 1
7479 9346 9349 1
7480 9346 9350 1
7481 9351 9352 1
7482 9351 9353 1
7483 9351 9354 1
7484 9351 9355 1
7485 9356 9357 1
7486 9356 9358 1
7487 9356 9359 1
7488 9356 9360 1
7489 9361 9362 1
7490 9361 9363 1
7491 9361 9364 1
7492 9361 9365 1
7493 9366 9367 1
7494 9366 9368 1
7495 9366 9369 1
7496 9366 9370 1
7497 9371 9372 1
7498 9371 9373 1
7499 9371 9374 1
7500 9371 9375 1
7501 9376 9377 1
7502 9376 9379 1
7503 9376 9380 1
7504 9376 9378 1
7505 9381 9382 1
7506 9381 9383 1
7507 9381 9384 1
7508 9381 9385 1
7509 9386 9387 1
7510 9386 9388 1
7511 9386 9389 1
7512 9386 9390 1
7513 9391 9392 1
7514 9391 9393 1
7515 9391 9394 1
7516 9391 9395 1
7517 9396 9397 1
7518 9396 9398 1
7519 9396 9399 1
7520 9396 9400 1
7521 9401 9402 1
7522 9401 9403 1
7523 9401 9404 1
7524 9401 9405 1
7525 9406 9407 1
7526 9406 9408 1
7527 9406 9409 1
7528 9406 9410 1
7529 9411 9412 1
7530 9411 9413 1
7531 9411 9414 1
7532 9411 9415 1
7533 9416 9417 1
7534 9416 9418 1
7535 9416 9419 1
7536 9416 9420 1
7537 9421 9422 1
7538 9421 9423 1
7539 9421 9424 1
7540 9421 9425 1
7541 9426 9427 1
7542 9426 9428 1
7543 9426 9429 1
7544 9426 9430 1
7545 9431 9432 1
7546 9431 9433 1
7547 9431 9434 1
7548 9431 9435 1
7549 9436 9437 1
7550 9436 9438 1
7551 9436 9439 1
7552 9436 9440 1
7553 9441 9442 1
7554 9441 9443 1
7555 9441 9444 1
7556 9441 9445 1
7557 9446 9447 1
7558 9446 9448 1
7559 9446 9449 1
7560 9446 9450 1
7561 9451 9452 1
7562 9451 9453 1
7563 9451 9454 1
7564 9451 9455 1
7565 9456 9457 1
7566 9456 9458 1
7567 9456 9459 1
7568 9456 9460 1
7569 9461 9462 1
7570 9461 9463 1
7571 9461 9464 1
7572 9461 9465 1
7573 9466 9467 1
7574 9466 9468 1
7575 9466 9469 1
7576 9466 9470 1
7577 9471 9472 1
7578 9471 9473 1
7579 9471 9474 1
7580 9471 9475 1
7581 9476 9477 1
7582 9476 9478 1
7583 9476 9479 1
7584 9476 9480 1
7585 9481 9482 1
7586 9481 9483 1
7587 9481 9484 1
7588 9481 9485 1
7589 9486 9487 1
7590 9486 9488 1
7591 9486 9489 1
7592 9486 9490 1
7593 9491 9492 1
7594 9491 9493 1
7595 9491 9494 1
7596 9491 9495 1
7597 9496 9497 1
7598 9496 9498 1
7599 9496 9499 1
7600 9496 9500 1
7601 9501 9502 1
7602 9501 9503 1
7603 9501 9504 1
7604 9501 9505 1
7605 9506 9507 1
7606 9506 9508 1
7607 9506 9509 1
7608 9506 9510 1
7609 9511 9512 1
7610 9511 9513 1
7611 9511 9514 1
7612 9511 9515 1
7613 9516 9517 1
7614 9516 9518 1
7615 9516 9519 1
7616 9516 9520 1
7617 9521 9522 1
7618 9521 9523 1
7619 9521 9524 1
7620 9521 9525 1
7621 9526 9527 1
7622 9526 9528 1
7623 9526 9529 1
7624 9526 9530 1
7625 9531 9532 1
7626 9531 9533 1
7627 9531 9534 1
7628 9531 9535 1
7629 9536 9537 1
7630 9536 9538 1
7631 9536 9539 1
7632 9536 9540 1
7633 9541 9542 1
7634 9541 9543 1
7635 9541 9544 1
7636 9541 9545 1
7637 9546 9547 1
7638 9546 9548 1
7639 9546 9549 1
7640 9546 9550 1
7641 9551 9555 1
7642 9551 9552 1
7643 9551 9553 1
7644 9551 9554 1
7645 9556 9557 1
7646 9556 9558 1
7647 9556 9559 1
7648 9556 9560 1
7649 9561 9562 1
7650 9561 9563 1
7651 9561 9564 1
7652 9561 9565 1
7653 9566 9567 1
7654 9566 9568 1
7655 9566 9569 1
7656 9566 9570 1
7657 9571 9572 1
7658 9571 9573 1
7659 9571 9574 1
7660 9571 9575 1
7661 9576 9577 1
7662 9576 9578 1
7663 9576 9579 1
7664 9576 9580 1
7665 9581 9582 1
7666 9581 9583 1
7667 9581 9584 1
7668 9581 9585 1
7669 9586 9587 1
7670 9586 9588 1
7671 9586 9589 1
7672 9586 9590 1
7673 9591 9592 1
7674 9591 9593 1
7675 9591 9594 1
7676 9591 9595 1
7677 9596 9597 1
7678 9596 9598 1
7679 9596 9599 1
7680 9596 9600 1
7681 9601 9602 1
7682 9601 9603 1
7683 9601 9604 1
7684 9601 9605 1
7685 9606 9607 1
7686 9606 9608 1
7687 9606 9609 1
7688 9606 9610 1
7689 9611 9612 1
7690 9611 9613 1
7691 9611 9614 1
7692 9611 9615 1
7693 9616 9617 1
7694 9616 9618 1
7695 9616 9619 1
7696 9616 9620 1
7697 9621 9622 1
7698 9621 9623 1
7699 9621 9624 1
7700 9621 9625 1
7701 9626 9627 1
7702 9626 9628 1
7703 9626 9629 1
7704 9626 9630 1
7705 9631 9632 1
7706 9631 9633 1
7707 9631 9634 1
7708 9631 9635 1
7709 9636 9639 1
7710 9636 9640 1
7711 9636 9637 1
7712 9636 9638 1
7713 9641 9642 1
7714 9641 9643 1
7715 9641 9644 1
7716 9641 9645 1
7717 9646 9647 1
7718 9646 9648 1
7719 9646 9649 1
7720 9646 9650 1
7721 9651 9652 1
7722 9651 9653 1
7723 9651 9654 1
7724 9651 9655 1
7725 9656 9657 1
7726 9656 9658 1
7727 9656 9659 1
7728 9656 9660 1
7729 9661 9664 1
7730 9661 9662 1
7731 9661 9663 1
7732 9661 9665 1
7733 9666 9667 1
7734 9666 9668 1
7735 9666 9669 1
7736 9666 9670 1
7737 9671 9672 1
7738 9671 9673 1
7739 9671 9674 1
7740 9671 9675 1
7741 9676 9677 1
7742 9676 9678 1
7743 9676 9679 1
7744 9676 9680 1
7745 9681 9682 1
7746 9681 9683 1
7747 9681 9684 1
7748 9681 9685 1
7749 9686 9687 1
7750 9686 9688 1
7751 9686 9689 1
7752 9686 9690 1
7753 9691 9692 1
7754 9691 9693 1
7755 9691 9694 1
7756 9691 9695 1
7757 9696 9697 1
7758 9696 9698 1
7759 9696 9699 1
7760 9696 9700 1
7761 9701 9702 1
7762 9701 9703 1
7763 9701 9704 1
7764 9701 9705 1
7765 9706 9707 1
7766 9706 9708 1
7767 9706 9709 1
7768 9706 9710 1
7769 9711 9712 1
7770 9711 9713 1
7771 9711 9714 1
7772 9711 9715 1
7773 9716 9717 1
7774 9716 9718 1
7775 9716 9719 1
7776 9716 9720 1
7777 9721 9723 1
7778 9721 9724 1
7779 9721 9725 1
7780 9721 9722 1
7781 9726 9727 1
7782 9726 9728 1
7783 9726 9729 1
7784 9726 9730 1
7785 9731 9732 1
7786 9731 9733 1
7787 9731 9734 1
7788 9731 9735 1
7789 9736 9737 1
7790 9736 9738 1
7791 9736 9739 1
7792 9736 9740 1
7793 9741 9742 1
7794 9741 9743 1
7795 9741 9744 1
7796 9741 9745 1
7797 9746 9747 1
7798 9746 9748 1
7799 9746 9749 1
7800 9746 9750 1
7801 9751 9752 1
7802 9751 9753 1
7803 9751 9754 1
7804 9751 9755 1
7805 9756 9757 1
7806 9756 9758 1
7807 9756 9759 1
7808 9756 9760 1
7809 9761 9762 1
7810 9761 9763 1
7811 9761 9764 1
7812 9761 9765 1
7813 9766 9767 1
7814 9766 9768 1
7815 9766 9769 1
7816 9766 9770 1
7817 9771 9772 1
7818 9771 9773 1
7819 9771 9774 1
7820 9771 9775 1
7821 9776 9777 1
7822 9776 9778 1
7823 9776 9779 1
7824 9776 9780 1
7825 9781 9782 1
7826 9781 9783 1
7827 9781 9784 1
7828 9781 9785 1
7829 9786 9787 1
7830 9786 9788 1
7831 9786 9789 1
7832 9786 9790 1
7833 9791 9792 1
7834 9791 9793 1
7835 9791 9794 1
7836 9791 9795 1
7837 9796 9797 1
7838 9796 9798 1
7839 9796 9799 1
7840 9796 9800 1
7841 9801 9802 1
7842 9801 9803 1
7843 9801 9804 1
7844 9801 9805 1
7845 9806 9807 1
7846 9806 9808 1
7847 9806 9809 1
7848 9806 9810 1
7849 9811 9812 1
7850 9811 9813 1
7851 9811 9814 1
7852 9811 9815 1
7853 9816 9817 1
7854 9816 9818 1
7855 9816 9819 1
7856 9816 9820 1
7857 9821 9822 1
7858 9821 9823 1
7859 9821 9824 1
7860 9821 9825 1
7861 9826 9827 1
7862 9826 9828 1
7863 9826 9829 1
7864 9826 9830 1
7865 9831 9832 1
7866 9831 9833 1
7867 9831 9834 1
7868 9831 9835 1
7869 9836 9837 1
7870 9836 9838 1
7871 9836 9839 1
7872 9836 9840 1
7873 9841 9842 1
7874 9841 9843 1
7875 9841 9844 1
7876 9841 9845 1
7877 9846 9847 1
7878 9846 9848 1
7879 9846 9849 1
7880 9846 9850 1
7881 9851 9852 1
7882 9851 9853 1
7883 9851 9854 1
7884 9851 9855 1
7885 9856 9857 1
7886 9856 9858 1
7887 9856 9859 1
7888 9856 9860 1
7889 9861 9862 1
7890 9861 9863 1
7891 9861 9864 1
7892 9861 9865 1
7893 9866 9867 1
7894 9866 9868 1
7895 9866 9869 1
7896 9866 9870 1
7897 9871 9872 1
7898 9871 9873 1
7899 9871 9874 1
7900 9871 9875 1
7901 9876 9877 1
7902 9876 9878 1
7903 9876 9879 1
7904 9876 9880 1
7905 9881 9882 1
7906 9881 9883 1
7907 9881 9884 1
7908 9881 9885 1
7909 9886 9887 1
7910 9886 9888 1
7911 9886 9889 1
7912 9886 9890 1
7913 9891 9892 1
7914 9891 9893 1
7915 9891 9894 1
7916 9891 9895 1
7917 9896 9897 1
7918 9896 9898 1
7919 9896 9899 1
7920 9896 9900 1
7921 9901 9902 1
7922 9901 9903 1
7923 9901 9904 1
7924 9901 9905 1
7925 9906 9907 1
7926 9906 9908 1
7927 9906 9909 1
7928 9906 9910 1
7929 9911 9912 1
7930 9911 9913 1
7931 9911 9914 1
7932 9911 9915 1
7933 9916 9917 1
7934 9916 9918 1
7935 9916 9919 1
7936 9916 9920 1
7937 9921 9922 1
7938 9921 9923 1
7939 9921 9924 1
7940 9921 9925 1
7941 9926 9927 1
7942 9926 9928 1
7943 9926 9929 1
7944 9926 9930 1
7945 9931 9932 1
7946 9931 9933 1
7947 9931 9934 1
7948 9931 9935 1
7949 9936 9937 1
7950 9936 9938 1
7951 9936 9939 1
7952 9936 9940 1
7953 9941 9942 1
7954 9941 9943 1
7955 9941 9944 1
7956 9941 9945 1
7957 9946 9947 1
7958 9946 9948 1
7959 9946 9949 1
7960 9946 9950 1
7961 9951 9952 1
7962 9951 9953 1
7963 9951 9954 1
7964 9951 9955 1
7965 9956 9957 1
7966 9956 9958 1
7967 9956 9959 1
7968 9956 9960 1
7969 9961 9962 1
7970 9961 9963 1
7971 9961 9964 1
7972 9961 9965 1
7973 9966 9967 1
7974 9966 9968 1
7975 9966 9969 1
7976 9966 9970 1
7977 9971 9975 1
7978 9971 9972 1
7979 9971 9973 1
7980 9971 9974 1
7981 9976 9977 1
7982 9976 9978 1
7983 9976 9979 1
7984 9976 9980 1
7985 9981 9982 1
7986 9981 9983 1
7987 9981 9984 1
7988 9981 9985 1
7989 9986 9987 1
7990 9986 9988 1
7991 9986 9989 1
7992 9986 9990 1
7993 9991 9992 1
7994 9991 9993 1
7995 9991 9994 1
7996 9991 9995 1
7997 9996 9997 1
7998 9996 9998 1
7999 9996 9999 1
8000 10000 9996 1
8001 10001 10002 1
8002 10001 10003 1
8003 10001 10004 1
8004 10001 10005 1
8005 10006 10007 1
8006 10006 10008 1
8007 10006 10009 1
8008 10006 10010 1
8009 10011 10012 1
8010 10011 10013 1
8011 10011 10014 1
8012 10011 10015 1
8013 10016 10017 1
8014 10016 10018 1
8015 10016 10019 1
8016 10016 10020 1
8017 10021 10022 1
8018 10021 10023 1
8019 10021 10024 1
8020 10021 10025 1
8021 10026 10027 1
8022 10026 10028 1
8023 10026 10029 1
8024 10026 10030 1
8025 10031 10032 1
8026 10031 10033 1
8027 10031 10034 1
8028 10031 10035 1
8029 10036 10037 1
8030 10036 10038 1
8031 10036 10039 1
8032 10036 10040 1
8033 10041 10042 1
8034 10041 10043 1
8035 10041 10044 1
8036 10041 10045 1
8037 10046 10047 1
8038 10046 10048 1
8039 10046 10049 1
8040 10046 10050 1
8041 10051 10052 1
8042 10051 10053 1
8043 10051 10054 1
8044 10051 10055 1
8045 10056 10059 1
8046 10056 10060 1
8047 10056 10057 1
8048 10056 10058 1
8049 10061 10062 1
8050 10061 10063 1
8051 10061 10064 1
8052 10061 10065 1
8053 10066 10067 1
8054 10066 10068 1
8055 10066 10069 1
8056 10066 10070 1
8057 10071 10072 1
8058 10071 10073 1
8059 10071 10074 1
8060 10071 10075 1
8061 10076 10077 1
8062 10076 10078 1
8063 10076 10079 1
8064 10076 10080 1
8065 10081 10082 1
8066 10081 10083 1
8067 10081 10084 1
8068 10081 10085 1
8069 10086 10087 1
8070 10086 10088 1
8071 10086 10089 1
8072 10086 10090 1
8073 10091 10092 1
8074 10091 10093 1
8075 10091 10094 1
8076 10091 10095 1
8077 10096 10097 1
8078 10096 10098 1
8079 10096 10099 1
8080 10096 10100 1
8081 10101 10102 1
8082 10101 10103 1
8083 10101 10104 1
8084 10101 10105 1
8085 10106 10107 1
8086 10106 10108 1
8087 10106 10109 1
8088 10106 10110 1
8089 10111 10112 1
8090 10111 10113 1
8091 10111 10114 1
8092 10111 10115 1
8093 10116 10117 1
8094 10116 10118 1
8095 10116 10119 1
8096 10116 10120 1
8097 10121 10122 1
8098 10121 10123 1
8099 10121 10124 1
8100 10121 10125 1
8101 10126 10127 1
8102 10126 10128 1
8103 10126 10129 1
8104 10126 10130 1
8105 10131 10132 1
8106 10131 10133 1
8107 10131 10134 1
8108 10131 10135 1
8109 10136 10137 1
8110 10136 10138 1
8111 10136 10139 1
8112 10136 10140 1
8113 10141 10142 1
8114 10141 10143 1
8115 10141 10144 1
8116 10141 10145 1
8117 10146 10147 1
8118 10146 10148 1
8119 10146 10149 1
8120 10146 10150 1
8121 10151 10152 1
8122 10151 10153 1
8123 10151 10154 1
8124 10151 10155 1
8125 10156 10157 1
8126 10156 10158 1
8127 10156 10159 1
8128 10156 10160 1
8129 10161 10162 1
8130 10161 10163 1
8131 10161 10164 1
8132 10161 10165 1
8133 10166 10167 1
8134 10166 10168 1
8135 10166 10169 1
8136 10166 10170 1
8137 10171 10172 1
8138 10171 10173 1
8139 10171 10174 1
8140 10171 10175 1
8141 10176 10177 1
8142 10176 10178 1
8143 10176 10179 1
8144 10176 10180 1
8145 10181 10182 1
8146 10181 10183 1
8147 10181 10184 1
8148 10181 10185 1
8149 10186 10187 1
8150 10186 10188 1
8151 10186 10189 1
8152 10186 10190 1
8153 10191 10192 1
8154 10191 10193 1
8155 10191 10194 1
8156 10191 10195 1
8157 10196 10197 1
8158 10196 10198 1
8159 10196 10199 1
8160 10196 10200 1
8161 10201 10202 1
8162 10201 10203 1
8163 10201 10204 1
8164 10201 10205 1
8165 10206 10207 1
8166 10206 10208 1
8167 10206 10209 1
8168 10206 10210 1
8169 10211 10212 1
8170 10211 10213 1
8171 10211 10214 1
8172 10211 10215 1
8173 10216 10217 1
8174 10216 10218 1
8175 10216 10219 1
8176 10216 10220 1
8177 10221 10222 1
8178 10221 10223 1
8179 10221 10224 1
8180 10221 10225 1
8181 10226 10227 1
8182 10226 10228 1
8183 10226 10229 1
8184 10226 10230 1
8185 10231 10232 1
8186 10231 10233 1
8187 10231 10234 1
8188 10231 10235 1
8189 10236 10237 1
8190 10236 10238 1
8191 10236 10239 1
8192 10236 10240 1
8193 10241 10242 1
8194 10241 10243 1
8195 10241 10244 1
8196 10241 10245 1
8197 10246 10247 1
8198 10246 10248 1
8199 10246 10249 1
8200 10246 10250 1
8201 10251 10252 1
8202 10251 10253 1
8203 10251 10254 1
8204 10251 10255 1
8205 10256 10257 1
8206 10256 10258 1
8207 10256 10259 1
8208 10256 10260 1
8209 10261 10262 1
8210 10261 10263 1
8211 10261 10264 1
8212 10261 10265 1
8213 10266 10269 1
8214 10266 10270 1
8215 10266 10267 1
8216 10266 10268 1
8217 10271 10272 1
8218 10271 10273 1
8219 10271 10274 1
8220 10271 10275 1
8221 10276 10277 1
8222 10276 10278 1
8223 10276 10279 1
8224 10276 10280 1
8225 10281 10282 1
8226 10281 10283 1
8227 10281 10284 1
8228 10281 10285 1
8229 10286 10287 1
8230 10286 10288 1
8231 10286 10289 1
8232 10286 10290 1
8233 10291 10292 1
8234 10291 10293 1
8235 10291 10294 1
8236 10291 10295 1
8237 10296 10297 1
8238 10296 10298 1
8239 10296 10299 1
8240 10296 10300 1
8241 10301 10302 1
8242 10301 10303 1
8243 10301 10304 1
8244 10301 10305 1
8245 10306 10307 1
8246 10306 10308 1
8247 10306 10309 1
8248 10306 10310 1
8249 10311 10312 1
8250 10311 10313 1
8251 10311 10314 1
8252 10311 10315 1
8253 10316 10317 1
8254 10316 10318 1
8255 10316 10319 1
8256 10316 10320 1
8257 10321 10322 1
8258 10321 10323 1
8259 10321 10324 1
8260 10321 10325 1
8261 10326 10327 1
8262 10326 10328 1
8263 10326 10329 1
8264 10326 10330 1
8265 10331 10333 1
8266 10331 10332 1
8267 10331 10334 1
8268 10331 10335 1
8269 10336 10337 1
8270 10336 10338 1
8271 10336 10339 1
8272 10336 10340 1
8273 10341 10342 1
8274 10341 10343 1
8275 10341 10344 1
8276 10341 10345 1
8277 10346 10347 1
8278 10346 10348 1
8279 10346 10349 1
8280 10346 10350 1
8281 10351 10353 1
8282 10351 10354 1
8283 10351 10355 1
8284 10351 10352 1
8285 10356 10357 1
8286 10356 10358 1
8287 10356 10359 1
8288 10356 10360 1
8289 10361 10362 1
8290 10361 10363 1
8291 10361 10364 1
8292 10361 10365 1
8293 10366 10367 1
8294 10366 10368 1
8295 10366 10369 1
8296 10366 10370 1
8297 10371 10372 1
8298 10371 10373 1
8299 10371 10374 1
8300 10371 10375 1
8301 10376 10377 1
8302 10376 10378 1
8303 10376 10379 1
8304 10376 10380 1
8305 10381 10382 1
8306 10381 10383 1
8307 10381 10384 1
8308 10381 10385 1
8309 10386 10387 1
8310 10386 10388 1
8311 10386 10389 1
8312 10386 10390 1
8313 10391 10395 1
8314 10391 10392 1
8315 10391 10393 1
8316 10391 10394 1
8317 10396 10397 1
8318 10396 10398 1
8319 10396 10399 1
8320 10396 10400 1
8321 10401 10402 1
8322 10401 10403 1
8323 10401 10404 1
8324 10401 10405 1
8325 10406 10407 1
8326 10406 10408 1
8327 10406 10409 1
8328 10406 10410 1
8329 10411 10412 1
8330 10411 10413 1
8331 10411 10414 1
8332 10411 10415 1
8333 10416 10417 1
8334 10416 10418 1
8335 10416 10419 1
8336 10416 10420 1
8337 10421 10422 1
8338 10421 10423 1
8339 10421 10424 1
8340 10421 10425 1
8341 10426 10427 1
8342 10426 10428 1
8343 10426 10429 1
8344 10426 10430 1
8345 10431 10432 1
8346 10431 10433 1
8347 10431 10434 1
8348 10431 10435 1
8349 10436 10437 1
8350 10436 10438 1
8351 10436 10439 1
8352 10436 10440 1
8353 10441 10442 1
8354 10441 10443 1
8355 10441 10444 1
8356 10441 10445 1
8357 10446 10447 1
8358 10446 10448 1
8359 10446 10449 1
8360 10446 10450 1
8361 10451 10452 1
8362 10451 10453 1
8363 10451 10454 1
8364 10451 10455 1
8365 10456 10457 1
8366 10456 10458 1
8367 10456 10459 1
8368 10456 10460 1
8369 10461 10462 1
8370 10461 10463 1
8371 10461 10464 1
8372 10461 10465 1
8373 10466 10467 1
8374 10466 10468 1
8375 10466 10469 1
8376 10466 10470 1
8377 10471 10472 1
8378 10471 10473 1
8379 10471 10474 1
8380 10471 10475 1
8381 10476 10479 1
8382 10476 10480 1
8383 10476 10477 1
8384 10476 10478 1
8385 10481 10482 1
8386 10481 10483 1
8387 10481 10484 1
8388 10481 10485 1
8389 10486 10487 1
8390 10486 10488 1
8391 10486 10489 1
8392 10486 10490 1
8393 10491 10492 1
8394 10491 10493 1
8395 10491 10494 1
8396 10491 10495 1
8397 10496 10497 1
8398 10496 10498 1
8399 10496 10499 1
8400 10496 10500 1
8401 10501 10502 1
8402 10501 10503 1
8403 10501 10504 1
8404 10501 10505 1
8405 10506 10507 1
8406 10506 10508 1
8407 10506 10509 1
8408 10506 10510 1
8409 10511 10512 1
8410 10511 10513 1
8411 10511 10514 1
8412 10511 10515 1
8413 10516 10517 1
8414 10516 10518 1
8415 10516 10519 1
8416 10516 10520 1
8417 10521 10522 1
8418 10521 10523 1
8419 10521 10524 1
8420 10521 10525 1
8421 10526 10527 1
8422 10526 10528 1
8423 10526 10529 1
8424 10526 10530 1
8425 10531 10532 1
8426 10531 10533 1
8427 10531 10534 1
8428 10531 10535 1
8429 10536 10537 1
8430 10536 10538 1
8431 10536 10539 1
8432 10536 10540 1
8433 10541 10542 1
8434 10541 10543 1
8435 10541 10544 1
8436 10541 10545 1
8437 10546 10547 1
8438 10546 10548 1
8439 10546 10549 1
8440 10546 10550 1
8441 10551 10552 1
8442 10551 10553 1
8443 10551 10554 1
8444 10551 10555 1
8445 10556 10560 1
8446 10556 10557 1
8447 10556 10558 1
8448 10556 10559 1
8449 10561 10563 1
8450 10561 10564 1
8451 10561 10565 1
8452 10561 10562 1
8453 10566 10567 1
8454 10566 10568 1
8455 10566 10569 1
8456 10566 10570 1
8457 10571 10572 1
8458 10571 10573 1
8459 10571 10574 1
8460 10571 10575 1
8461 10576 10577 1
8462 10576 10578 1
8463 10576 10579 1
8464 10576 10580 1
8465 10581 10582 1
8466 10581 10583 1
8467 10581 10584 1
8468 10581 10585 1
8469 10586 10587 1
8470 10586 10588 1
8471 10586 10589 1
8472 10586 10590 1
8473 10591 10592 1
8474 10591 10593 1
8475 10591 10594 1
8476 10591 10595 1
8477 10596 10597 1
8478 10596 10598 1
8479 10596 10599 1
8480 10596 10600 1
8481 10601 10602 1
8482 10601 10603 1
8483 10601 10604 1
8484 10601 10605 1
8485 10606 10607 1
8486 10606 10608 1
8487 10606 10609 1
8488 10606 10610 1
8489 10611 10612 1
8490 10611 10613 1
8491 10611 10614 1
8492 10611 10615 1
8493 10616 10617 1
8494 10616 10618 1
8495 10616 10619 1
8496 10616 10620 1
8497 10621 10622 1
8498 10621 10623 1
8499 10621 10624 1
8500 10621 10625 1
8501 10626 10627 1
8502 10626 10628 1
8503 10626 10629 1
8504 10626 10630 1
8505 10631 10632 1
8506 10631 10633 1
8507 10631 10634 1
8508 10631 10635 1
8509 10636 10637 1
8510 10636 10638 1
8511 10636 10639 1
8512 10636 10640 1
8513 10641 10642 1
8514 10641 10643 1
8515 10641 10644 1
8516 10641 10645 1
8517 10646 10647 1
8518 10646 10648 1
8519 10646 10649 1
8520 10646 10650 1
8521 10651 10652 1
8522 10651 10653 1
8523 10651 10654 1
8524 10651 10655 1
8525 10656 10657 1
8526 10656 10658 1
8527 10656 10659 1
8528 10656 10660 1
8529 10661 10662 1
8530 10661 10663 1
8531 10661 10664 1
8532 10661 10665 1
8533 10666 10667 1
8534 10666 10668 1
8535 10666 10669 1
8536 10666 10670 1
8537 10671 10672 1
8538 10671 10673 1
8539 10671 10674 1
8540 10671 10675 1
8541 10676 10677 1
8542 10676 10678 1
8543 10676 10679 1
8544 10676 10680 1
8545 10681 10682 1
8546 10681 10683 1
8547 10681 10684 1
8548 10681 10685 1
8549 10686 10687 1
8550 10686 10688 1
8551 10686 10689 1
8552 10686 10690 1
8553 10691 10692 1
8554 10691 10693 1
8555 10691 10694 1
8556 10691 10695 1
8557 10696 10697 1
8558 10696 10698 1
8559 10696 10699 1
8560 10696 10700 1
8561 10701 10702 1
8562 10701 10703 1
8563 10701 10704 1
8564 10701 10705 1
8565 10706 10707 1
8566 10706 10708 1
8567 10706 10709 1
8568 10706 10710 1
8569 10711 10712 1
8570 10711 10713 1
8571 10711 10714 1
8572 10711 10715 1
8573 10716 10717 1
8574 10716 10718 1
8575 10716 10719 1
8576 10716 10720 1
8577 10721 10722 1
8578 10721 10723 1
8579 10721 10724 1
8580 10721 10725 1
8581 10726 10727 1
8582 10726 10728 1
8583 10726 10729 1
8584 10726 10730 1
8585 10731 10732 1
8586 10731 10733 1
8587 10731 10734 1
8588 10731 10735 1
8589 10736 10737 1
8590 10736 10738 1
8591 10736 10739 1
8592 10736 10740 1
8593 10741 10742 1
8594 10741 10743 1
8595 10741 10744 1
8596 10741 10745 1
8597 10746 10747 1
8598 10746 10748 1
8599 10746 10749 1
8600 10746 10750 1
8601 10751 10752 1
8602 10751 10753 1
8603 10751 10754 1
8604 10751 10755 1
8605 10756 10757 1
8606 10756 10758 1
8607 10756 10759 1
8608 10756 10760 1
8609 10761 10762 1
8610 10761 10763 1
8611 10761 10764 1
8612 10761 10765 1
8613 10766 10767 1
8614 10766 10768 1
8615 10766 10769 1
8616 10766 10770 1
8617 10771 10772 1
8618 10771 10773 1
8619 10771 10774 1
8620 10771 10775 1
8621 10776 10777 1
8622 10776 10778 1
8623 10776 10779 1
8624 10776 10780 1
8625 10781 10782 1
8626 10781 10783 1
8627 10781 10784 1
8628 10781 10785 1
8629 10786 10787 1
8630 10786 10788 1
8631 10786 10789 1
8632 10786 10790 1
8633 10791 10792 1
8634 10791 10793 1
8635 10791 10794 1
8636 10791 10795 1
8637 10796 10797 1
8638 10796 10798 1
8639 10796 10799 1
8640 10796 10800 1
8641 10801 10802 1
8642 10801 10803 1
8643 10801 10804 1
8644 10801 10805 1
8645 10806 10807 1
8646 10806 10808 1
8647 10806 10809 1
8648 10806 10810 1
8649 10811 10815 1
8650 10811 10812 1
8651 10811 10813 1
8652 10811 10814 1
8653 10816 10817 1
8654 10816 10818 1
8655 10816 10819 1
8656 10816 10820 1
8657 10821 10822 1
8658 10821 10823 1
8659 10821 10824 1
8660 10821 10825 1
8661 10826 10827 1
8662 10826 10828 1
8663 10826 10829 1
8664 10826 10830 1
8665 10831 10832 1
8666 10831 10833 1
8667 10831 10834 1
8668 10831 10835 1
8669 10836 10837 1
8670 10836 10838 1
8671 10836 10839 1
8672 10836 10840 1
8673 10841 10842 1
8674 10841 10843 1
8675 10841 10844 1
8676 10841 10845 1
8677 10846 10847 1
8678 10846 10848 1
8679 10846 10849 1
8680 10846 10850 1
8681 10851 10852 1
8682 10851 10853 1
8683 10851 10854 1
8684 10851 10855 1
8685 10856 10857 1
8686 10856 10858 1
8687 10856 10859 1
8688 10856 10860 1
8689 10861 10862 1
8690 10861 10863 1
8691 10861 10864 1
8692 10861 10865 1
8693 10866 10867 1
8694 10866 10868 1
8695 10866 10869 1
8696 10866 10870 1
8697 10871 10872 1
8698 10871 10873 1
8699 10871 10874 1
8700 10871 10875 1
8701 10876 10877 1
8702 10876 10878 1
8703 10876 10879 1
8704 10876 10880 1
8705 10881 10882 1
8706 10881 10883 1
8707 10881 10884 1
8708 10881 10885 1
8709 10886 10887 1
8710 10886 10888 1
8711 10886 10889 1
8712 10886 10890 1
8713 10891 10892 1
8714 10891 10893 1
8715 10891 10894 1
8716 10891 10895 1
8717 10896 10899 1
8718 10896 10900 1
8719 10896 10897 1
8720 10896 10898 1
8721 10901 10902 1
8722 10901 10903 1
8723 10901 10904 1
8724 10901 10905 1
8725 10906 10907 1
8726 10906 10908 1
8727 10906 10909 1
8728 10906 10910 1
8729 10911 10912 1
8730 10911 10913 1
8731 10911 10914 1
8732 10911 10915 1
8733 10916 10917 1
8734 10916 10918 1
8735 10916 10919 1
8736 10916 10920 1
8737 10921 10922 1
8738 10921 10923 1
8739 10921 10924 1
8740 10921 10925 1
8741 10926 10927 1
8742 10926 10928 1
8743 10926 10929 1
8744 10926 10930 1
8745 10931 10932 1
8746 10931 10933 1
8747 10931 10934 1
8748 10931 10935 1
8749 10936 10937 1
8750 10936 10938 1
8751 10936 10939 1
8752 10936 10940 1
8753 10941 10942 1
8754 10941 10943 1
8755 10941 10944 1
8756 10941 10945 1
8757 10946 10947 1
8758 10946 10948 1
8759 10946 10949 1
8760 10946 10950 1
8761 10951 10952 1
8762 10951 10953 1
8763 10951 10954 1
8764 10951 10955 1
8765 10956 10957 1
8766 10956 10958 1
8767 10956 10959 1
8768 10956 10960 1
8769 10961 10962 1
8770 10961 10963 1
8771 10961 10964 1
8772 10961 10965 1
8773 10966 10967 1
8774 10966 10968 1
8775 10966 10969 1
8776 10966 10970 1
8777 10971 10972 1
8778 10971 10973 1
8779 10971 10974 1
8780 10971 10975 1
8781 10976 10977 1
8782 10976 10978 1
8783 10976 10979 1
8784 10976 10980 1
8785 10981 10983 1
8786 10981 10984 1
8787 10981 10985 1
8788 10981 10982 1
8789 10986 10987 1
8790 10986 10988 1
8791 10986 10989 1
8792 10986 10990 1
8793 10991 10992 1
8794 10991 10993 1
8795 10991 10994 1
8796 10991 10995 1
8797 10996 10997 1
8798 10996 10998 1
8799 10996 10999 1
8800 10996 11000 1
8801 11001 11002 1
8802 11001 11003 1
8803 11001 11004 1
8804 11001 11005 1
8805 11006 11007 1
8806 11006 11008 1
8807 11006 11009 1
8808 11006 11010 1
8809 11011 11012 1
8810 11011 11013 1
8811 11011 11014 1
8812 11011 11015 1
8813 11016 11017 1
8814 11016 11018 1
8815 11016 11019 1
8816 11016 11020 1
8817 11021 11022 1
8818 11021 11023 1
8819 11021 11024 1
8820 11021 11025 1
8821 11026 11027 1
8822 11026 11028 1
8823 11026 11029 1
8824 11026 11030 1
8825 11031 11032 1
8826 11031 11033 1
8827 11031 11034 1
8828 11031 11035 1
8829 11036 11037 1
8830 11036 11038 1
8831 11036 11039 1
8832 11036 11040 1
8833 11041 11042 1
8834 11041 11043 1
8835 11041 11044 1
8836 11041 11045 1
8837 11046 11047 1
8838 11046 11048 1
8839 11046 11049 1
8840 11046 11050 1
8841 11051 11052 1
8842 11051 11053 1
8843 11051 11054 1
8844 11051 11055 1
8845 11056 11057 1
8846 11056 11058 1
8847 11056 11059 1
8848 11056 11060 1
8849 11061 11062 1
8850 11061 11063 1
8851 11061 11064 1
8852 11061 11065 1
8853 11066 11067 1
8854 11066 11068 1
8855 11066 11069 1
8856 11066 11070 1
8857 11071 11072 1
8858 11071 11073 1
8859 11071 11074 1
8860 11071 11075 1
8861 11076 11077 1
8862 11076 11078 1
8863 11076 11079 1
8864 11076 11080 1
8865 11081 11082 1
8866 11081 11083 1
8867 11081 11084 1
8868 11081 11085 1
8869 11086 11087 1
8870 11086 11088 1
8871 11086 11089 1
8872 11086 11090 1
8873 11091 11092 1
8874 11091 11093 1
8875 11091 11094 1
8876 11091 11095 1
8877 11096 11097 1
8878 11096 11098 1
8879 11096 11099 1
8880 11096 11100 1
8881 11101 11102 1
8882 11101 11103 1
8883 11101 11104 1
8884 11101 11105 1
8885 11106 11107 1
8886 11106 11108 1
8887 11106 11109 1
8888 11106 11110 1
8889 11111 11112 1
8890 11111 11113 1
8891 11111 11114 1
8892 11111 11115 1
8893 11116 11117 1
8894 11116 11118 1
8895 11116 11119 1
8896 11116 11120 1
8897 11121 11122 1
8898 11121 11123 1
8899 11121 11124 1
8900 11121 11125 1
8901 11126 11127 1
8902 11126 11128 1
8903 11126 11129 1
8904 11126 11130 1
8905 11131 11132 1
8906 11131 11133 1
8907 11131 11134 1
8908 11131 11135 1
8909 11136 11137 1
8910 11136 11138 1
8911 11136 11139 1
8912 11136 11140 1
8913 11141 11142 1
8914 11141 11143 1
8915 11141 11144 1
8916 11141 11145 1
8917 11146 11147 1
8918 11146 11148 1
8919 11146 11149 1
8920 11146 11150 1
8921 11151 11152 1
8922 11151 11153 1
8923 11151 11154 1
8924 11151 11155 1
8925 11156 11157 1
8926 11156 11158 1
8927 11156 11159 1
8928 11156 11160 1
8929 11161 11162 1
8930 11161 11163 1
8931 11161 11164 1
8932 11161 11165 1
8933 11166 11167 1
8934 11166 11168 1
8935 11166 11169 1
8936 11166 11170 1
8937 11171 11172 1
8938 11171 11173 1
8939 11171 11174 1
8940 11171 11175 1
8941 11176 11177 1
8942 11176 11178 1
8943 11176 11179 1
8944 11176 11180 1
8945 11181 11182 1
8946 11181 11183 1
8947 11181 11184 1
8948 11181 11185 1
8949 11186 11187 1
8950 11186 11188 1
8951 11186 11189 1
8952 11186 11190 1
8953 11191 11192 1
8954 11191 11193 1
8955 11191 11194 1
8956 11191 11195 1
8957 11196 11197 1
8958 11196 11198 1
8959 11196 11199 1
8960 11196 11200 1
8961 11201 11202 1
8962 11201 11203 1
8963 11201 11204 1
8964 11201 11205 1
8965 11206 11207 1
8966 11206 11208 1
8967 11206 11209 1
8968 11206 11210 1
8969 11211 11212 1
8970 11211 11213 1
8971 11211 11214 1
8972 11211 11215 1
8973 11216 11217 1
8974 11216 11218 1
8975 11216 11219 1
8976 11216 11220 1
8977 11221 11222 1
8978 11221 11223 1
8979 11221 11224 1
8980 11221 11225 1
8981 11226 11227 1
8982 11226 11228 1
8983 11226 11229 1
8984 11226 11230 1
8985 11231 11235 1
8986 11231 11232 1
8987 11231 11233 1
8988 11231 11234 1
8989 11236 11239 1
8990 11236 11240 1
8991 11236 11237 1
8992 11236 11238 1
8993 11241 11242 1
8994 11241 11243 1
8995 11241 11244 1
8996 11241 11245 1
8997 11246 11247 1
8998 11246 11248 1
8999 11246 11249 1
9000 11246 11250 1
9001 11251 11252 1
9002 11251 11253 1
9003 11251 11254 1
9004 11251 11255 1
9005 11256 11257 1
9006 11256 11258 1
9007 11256 11259 1
9008 11256 11260 1
9009 11261 11262 1
9010 11261 11263 1
9011 11261 11264 1
9012 11261 11265 1
9013 11266 11267 1
9014 11266 11268 1
9015 11266 11269 1
9016 11266 11270 1
9017 11271 11272 1
9018 11271 11273 1
9019 11271 11274 1
9020 11271 11275 1
9021 11276 11277 1
9022 11276 11278 1
9023 11276 11279 1
9024 11276 11280 1
9025 11281 11282 1
9026 11281 11283 1
9027 11281 11284 1
9028 11281 11285 1
9029 11286 11287 1
9030 11286 11288 1
9031 11286 11289 1
9032 11286 11290 1
9033 11291 11292 1
9034 11291 11293 1
9035 11291 11294 1
9036 11291 11295 1
9037 11296 11297 1
9038 11296 11298 1
9039 11296 11299 1
9040 11296 11300 1
9041 11301 11302 1
9042 11301 11303 1
9043 11301 11304 1
9044 11301 11305 1
9045 11306 11307 1
9046 11306 11308 1
9047 11306 11309 1
9048 11306 11310 1
9049 11311 11312 1
9050 11311 11313 1
9051 11311 11314 1
9052 11311 11315 1
9053 11316 11319 1
9054 11316 11320 1
9055 11316 11317 1
9056 11316 11318 1
9057 11321 11322 1
9058 11321 11323 1
9059 11321 11324 1
9060 11321 11325 1
9061 11326 11327 1
9062 11326 11328 1
9063 11326 11329 1
9064 11326 11330 1
9065 11331 11332 1
9066 11331 11333 1
9067 11331 11334 1
9068 11331 11335 1
9069 11336 11337 1
9070 11336 11338 1
9071 11336 11339 1
9072 11336 11340 1
9073 11341 11342 1
9074 11341 11343 1
9075 11341 11344 1
9076 11341 11345 1
9077 11346 11347 1
9078 11346 11348 1
9079 11346 11349 1
9080 11346 11350 1
9081 11351 11352 1
9082 11351 11353 1
9083 11351 11354 1
9084 11351 11355 1
9085 11356 11357 1
9086 11356 11358 1
9087 11356 11359 1
9088 11356 11360 1
9089 11361 11362 1
9090 11361 11363 1
9091 11361 11364 1
9092 11361 11365 1
9093 11366 11367 1
9094 11366 11368 1
9095 11366 11369 1
9096 11366 11370 1
9097 11371 11372 1
9098 11371 11373 1
9099 11371 11374 1
9100 11371 11375 1
9101 11376 11377 1
9102 11376 11378 1
9103 11376 11379 1
9104 11376 11380 1
9105 11381 11382 1
9106 11381 11383 1
9107 11381 11384 1
9108 11381 11385 1
9109 11386 11387 1
9110 11386 11388 1
9111 11386 11389 1
9112 11386 11390 1
9113 11391 11392 1
9114 11391 11393 1
9115 11391 11394 1
9116 11391 11395 1
9117 11396 11397 1
9118 11396 11398 1
9119 11396 11399 1
9120 11396 11400 1
9121 11401 11403 1
9122 11401 11404 1
9123 11401 11405 1
9124 11401 11402 1
9125 11406 11407 1
9126 11406 11408 1
9127 11406 11409 1
9128 11406 11410 1
9129 11411 11412 1
9130 11411 11413 1
9131 11411 11414 1
9132 11411 11415 1
9133 11416 11417 1
9134 11416 11418 1
9135 11416 11419 1
9136 11416 11420 1
9137 11421 11422 1
9138 11421 11423 1
9139 11421 11424 1
9140 11421 11425 1
9141 11426 11427 1
9142 11426 11428 1
9143 11426 11429 1
9144 11426 11430 1
9145 11431 11432 1
9146 11431 11433 1
9147 11431 11434 1
9148 11431 11435 1
9149 11436 11437 1
9150 11436 11438 1
9151 11436 11439 1
9152 11436 11440 1
9153 11441 11442 1
9154 11441 11443 1
9155 11441 11444 1
9156 11441 11445 1
9157 11446 11447 1
9158 11446 11448 1
9159 11446 11449 1
9160 11446 11450 1
9161 11451 11452 1
9162 11451 11453 1
9163 11451 11454 1
9164 11451 11455 1
9165 11456 11457 1
9166 11456 11458 1
9167 11456 11459 1
9168 11456 11460 1
9169 11461 11462 1
9170 11461 11463 1
9171 11461 11464 1
9172 11461 11465 1
9173 11466 11467 1
9174 11466 11468 1
9175 11466 11469 1
9176 11466 11470 1
9177 11471 11472 1
9178 11471 11473 1
9179 11471 11474 1
9180 11471 11475 1
9181 11476 11477 1
9182 11476 11478 1
9183 11476 11479 1
9184 11476 11480 1
9185 11481 11482 1
9186 11481 11483 1
9187 11481 11484 1
9188 11481 11485 1
9189 11486 11487 1
9190 11486 11488 1
9191 11486 11489 1
9192 11486 11490 1
9193 11491 11492 1
9194 11491 11493 1
9195 11491 11494 1
9196 11491 11495 1
9197 11496 11497 1
9198 11496 11498 1
9199 11496 11499 1
9200 11496 11500 1
9201 11501 11502 1
9202 11501 11503 1
9203 11501 11504 1
9204 11501 11505 1
9205 11506 11507 1
9206 11506 11508 1
9207 11506 11509 1
9208 11506 11510 1
9209 11511 11512 1
9210 11511 11513 1
9211 11511 11514 1
9212 11511 11515 1
9213 11516 11517 1
9214 11516 11518 1
9215 11516 11519 1
9216 11516 11520 1
9217 11521 11522 1
9218 11521 11523 1
9219 11521 11524 1
9220 11521 11525 1
9221 11526 11527 1
9222 11526 11528 1
9223 11526 11529 1
9224 11526 11530 1
9225 11531 11534 1
9226 11531 11533 1
9227 11531 11532 1
9228 11531 11535 1
9229 11536 11537 1
9230 11536 11538 1
9231 11536 11539 1
9232 11536 11540 1
9233 11541 11542 1
9234 11541 11543 1
9235 11541 11544 1
9236 11541 11545 1
9237 11546 11547 1
9238 11546 11548 1
9239 11546 11549 1
9240 11546 11550 1
9241 11551 11552 1
9242 11551 11553 1
9243 11551 11554 1
9244 11551 11555 1
9245 11556 11557 1
9246 11556 11558 1
9247 11556 11559 1
9248 11556 11560 1
9249 11561 11562 1
9250 11561 11563 1
9251 11561 11564 1
9252 11561 11565 1
9253 11566 11567 1
9254 11566 11568 1
9255 11566 11569 1
9256 11566 11570 1
9257 11571 11572 1
9258 11571 11573 1
9259 11571 11574 1
9260 11571 11575 1
9261 11576 11577 1
9262 11576 11578 1
9263 11576 11579 1
9264 11576 11580 1
9265 11581 11582 1
9266 11581 11583 1
9267 11581 11584 1
9268 11581 11585 1
9269 11586 11587 1
9270 11586 11588 1
9271 11586 11589 1
9272 11586 11590 1
9273 11591 11592 1
9274 11591 11593 1
9275 11591 11594 1
9276 11591 11595 1
9277 11596 11597 1
9278 11596 11598 1
9279 11596 11599 1
9280 11596 11600 1
9281 11601 11602 1
9282 11601 11603 1
9283 11601 11604 1
9284 11601 11605 1
9285 11606 11607 1
9286 11606 11608 1
9287 11606 11609 1
9288 11606 11610 1
9289 11611 11612 1
9290 11611 11613 1
9291 11611 11614 1
9292 11611 11615 1
9293 11616 11617 1
9294 11616 11618 1
9295 11616 11619 1
9296 11616 11620 1
9297 11621 11622 1
9298 11621 11623 1
9299 11621 11624 1
9300 11621 11625 1
9301 11626 11627 1
9302 11626 11628 1
9303 11626 11629 1
9304 11626 11630 1
9305 11631 11632 1
9306 11631 11633 1
9307 11631 11634 1
9308 11631 11635 1
9309 11636 11637 1
9310 11636 11638 1
9311 11636 11639 1
9312 11636 11640 1
9313 11641 11642 1
9314 11641 11643 1
9315 11641 11644 1
9316 11641 11645 1
9317 11646 11647 1
9318 11646 11648 1
9319 11646 11649 1
9320 11646 11650 1
9321 11651 11652 1
9322 11651 11653 1
9323 11651 11654 1
9324 11651 11655 1
9325 11656 11657 1
9326 11656 11658 1
9327 11656 11659 1
9328 11656 11660 1
9329 11661 11662 1
9330 11661 11663 1
9331 11661 11664 1
9332 11661 11665 1
9333 11666 11667 1
9334 11666 11668 1
9335 11666 11669 1
9336 11666 11670 1
9337 11671 11672 1
9338 11671 11673 1
9339 11671 11674 1
9340 11671 11675 1
9341 11676 11677 1
9342 11676 11678 1
9343 11676 11679 1
9344 11676 11680 1
9345 11681 11682 1
9346 11681 11683 1
9347 11681 11684 1
9348 11681 11685 1
9349 11686 11687 1
9350 11686 11688 1
9351 11686 11689 1
9352 11686 11690 1
9353 11691 11692 1
9354 11691 11693 1
9355 11691 11694 1
9356 11691 11695 1
9357 11696 11697 1
9358 11696 11698 1
9359 11696 11699 1
9360 11696 11700 1
9361 11701 11704 1
9362 11701 11703 1
9363 11701 11705 1
9364 11701 11702 1
9365 11706 11707 1
9366 11706 11708 1
9367 11706 11709 1
9368 11706 11710 1
9369 11711 11712 1
9370 11711 11713 1
9371 11711 11714 1
9372 11711 11715 1
9373 11716 11717 1
9374 11716 11718 1
9375 11716 11719 1
9376 11716 11720 1
9377 11721 11722 1
9378 11721 11723 1
9379 11721 11724 1
9380 11721 11725 1
9381 11726 11727 1
9382 11726 11728 1
9383 11726 11729 1
9384 11726 11730 1
9385 11731 11732 1
9386 11731 11733 1
9387 11731 11734 1
9388 11731 11735 1
9389 11736 11739 1
9390 11736 11740 1
9391 11736 11737 1
9392 11736 11738 1
9393 11741 11742 1
9394 11741 11743 1
9395 11741 11744 1
9396 11741 11745 1
9397 11746 11747 1
9398 11746 11748 1
9399 11746 11749 1
9400 11746 11750 1
9401 11751 11752 1
9402 11751 11753 1
9403 11751 11754 1
9404 11751 11755 1
9405 11756 11757 1
9406 11756 11758 1
9407 11756 11759 1
9408 11756 11760 1
9409 11761 11762 1
9410 11761 11763 1
9411 11761 11764 1
9412 11761 11765 1
9413 11766 11767 1
9414 11766 11768 1
9415 11766 11769 1
9416 11766 11770 1
9417 11771 11772 1
9418 11771 11773 1
9419 11771 11774 1
9420 11771 11775 1
9421 11776 11777 1
9422 11776 11778 1
9423 11776 11779 1
9424 11776 11780 1
9425 11781 11782 1
9426 11781 11783 1
9427 11781 11784 1
9428 11781 11785 1
9429 11786 11787 1
9430 11786 11788 1
9431 11786 11789 1
9432 11786 11790 1
9433 11791 11792 1
9434 11791 11793 1
9435 11791 11794 1
9436 11791 11795 1
9437 11796 11797 1
9438 11796 11798 1
9439 11796 11799 1
9440 11796 11800 1
9441 11801 11802 1
9442 11801 11803 1
9443 11801 11804 1
9444 11801 11805 1
9445 11806 11807 1
9446 11806 11808 1
9447 11806 11809 1
9448 11806 11810 1
9449 11811 11812 1
9450 11811 11813 1
9451 11811 11814 1
9452 11811 11815 1
9453 11816 11817 1
9454 11816 11818 1
9455 11816 11819 1
9456 11816 11820 1
9457 11821 11823 1
9458 11821 11824 1
9459 11821 11825 1
9460 11821 11822 1
9461 11826 11827 1
9462 11826 11828 1
9463 11826 11829 1
9464 11826 11830 1
9465 11831 11832 1
9466 11831 11833 1
9467 11831 11834 1
9468 11831 11835 1
9469 11836 11837 1
9470 11836 11838 1
9471 11836 11839 1
9472 11836 11840 1
9473 11841 11842 1
9474 11841 11843 1
9475 11841 11844 1
9476 11841 11845 1
9477 11846 11847 1
9478 11846 11848 1
9479 11846 11849 1
9480 11846 11850 1
9481 11851 11852 1
9482 11851 11853 1
9483 11851 11854 1
9484 11851 11855 1
9485 11856 11857 1
9486 11856 11858 1
9487 11856 11859 1
9488 11856 11860 1
9489 11861 11862 1
9490 11861 11863 1
9491 11861 11864 1
9492 11861 11865 1
9493 11866 11867 1
9494 11866 11868 1
9495 11866 11869 1
9496 11866 11870 1
9497 11871 11872 1
9498 11871 11873 1
9499 11871 11874 1
9500 11871 11875 1
9501 11876 11877 1
9502 11876 11878 1
9503 11876 11879 1
9504 11876 11880 1
9505 11881 11882 1
9506 11881 11883 1
9507 11881 11884 1
9508 11881 11885 1
9509 11886 11887 1
9510 11886 11888 1
9511 11886 11889 1
9512 11886 11890 1
9513 11891 11892 1
9514 11891 11893 1
9515 11891 11894 1
9516 11891 11895 1
9517 11896 11897 1
9518 11896 11898 1
9519 11896 11899 1
9520 11896 11900 1
9521 11901 11904 1
9522 11901 11902 1
9523 11901 11903 1
9524 11901 11905 1
9525 11906 11907 1
9526 11906 11908 1
9527 11906 11909 1
9528 11906 11910 1
9529 11911 11912 1
9530 11911 11913 1
9531 11911 11914 1
9532 11911 11915 1
9533 11916 11917 1
9534 11916 11918 1
9535 11916 11919 1
9536 11916 11920 1
9537 11921 11922 1
9538 11921 11923 1
9539 11921 11924 1
9540 11921 11925 1
9541 11926 11927 1
9542 11926 11928 1
9543 11926 11929 1
9544 11926 11930 1
9545 11931 11932 1
9546 11931 11933 1
9547 11931 11934 1
9548 11931 11935 1
9549 11936 11937 1
9550 11936 11938 1
9551 11936 11939 1
9552 11936 11940 1
9553 11941 11942 1
9554 11941 11943 1
9555 11941 11944 1
9556 11941 11945 1
9557 11946 11947 1
9558 11946 11948 1
9559 11946 11949 1
9560 11946 11950 1
9561 11951 11952 1
9562 11951 11953 1
9563 11951 11954 1
9564 11951 11955 1
9565 11956 11957 1
9566 11956 11958 1
9567 11956 11959 1
9568 11956 11960 1
9569 11961 11962 1
9570 11961 11963 1
9571 11961 11964 1
9572 11961 11965 1
9573 11966 11970 1
9574 11966 11968 1
9575 11966 11967 1
9576 11966 11969 1
9577 11971 11972 1
9578 11971 11973 1
9579 11971 11974 1
9580 11971 11975 1
9581 11976 11977 1
9582 11976 11978 1
9583 11976 11979 1
9584 11976 11980 1
9585 11981 11982 1
9586 11981 11983 1
9587 11981 11984 1
9588 11981 11985 1
9589 11986 11987 1
9590 11986 11988 1
9591 11986 11989 1
9592 11986 11990 1
9593 11991 11992 1
9594 11991 11993 1
9595 11991 11994 1
9596 11991 11995 1
9597 11996 11997 1
9598 11996 11998 1
9599 11996 11999 1
9600 11996 12000 1
9601 12001 12002 1
9602 12001 12003 1
9603 12001 12004 1
9604 12001 12005 1
9605 12006 12007 1
9606 12006 12008 1
9607 12006 12009 1
9608 12006 12010 1
9609 12011 12012 1
9610 12011 12013 1
9611 12011 12014 1
9612 12011 12015 1
9613 12016 12017 1
9614 12016 12018 1
9615 12016 12019 1
9616 12016 12020 1
9617 12021 12022 1
9618 12021 12023 1
9619 12021 12024 1
9620 12021 12025 1
9621 12026 12030 1
9622 12026 12027 1
9623 12026 12028 1
9624 12026 12029 1
9625 12031 12032 1
9626 12031 12033 1
9627 12031 12034 1
9628 12031 12035 1
9629 12036 12037 1
9630 12036 12038 1
9631 12036 12039 1
9632 12036 12040 1
9633 12041 12042 1
9634 12041 12043 1
9635 12041 12044 1
9636 12041 12045 1
9637 12046 12047 1
9638 12046 12048 1
9639 12046 12049 1
9640 12046 12050 1
9641 12051 12052 1
9642 12051 12053 1
9643 12051 12054 1
9644 12051 12055 1
9645 12056 12057 1
9646 12056 12058 1
9647 12056 12059 1
9648 12056 12060 1
9649 12061 12062 1
9650 12061 12063 1
9651 12061 12064 1
9652 12061 12065 1
9653 12066 12067 1
9654 12066 12068 1
9655 12066 12069 1
9656 12066 12070 1
9657 12071 12075 1
9658 12071 12072 1
9659 12071 12073 1
9660 12071 12074 1
9661 12076 12077 1
9662 12076 12078 1
9663 12076 12079 1
9664 12076 12080 1
9665 12081 12082 1
9666 12081 12083 1
9667 12081 12084 1
9668 12081 12085 1
9669 12086 12087 1
9670 12086 12088 1
9671 12086 12089 1
9672 12086 12090 1
9673 12091 12092 1
9674 12091 12093 1
9675 12091 12094 1
9676 12091 12095 1
9677 12096 12097 1
9678 12096 12098 1
9679 12096 12099 1
9680 12096 12100 1
9681 12101 12102 1
9682 12101 12103 1
9683 12101 12104 1
9684 12101 12105 1
9685 12106 12107 1
9686 12106 12108 1
9687 12106 12109 1
9688 12106 12110 1
9689 12111 12112 1
9690 12111 12113 1
9691 12111 12114 1
9692 12111 12115 1
9693 12116 12117 1
9694 12116 12118 1
9695 12116 12119 1
9696 12116 12120 1
9697 12121 12122 1
9698 12121 12123 1
9699 12121 12124 1
9700 12121 12125 1
9701 12126 12127 1
9702 12126 12128 1
9703 12126 12129 1
9704 12126 12130 1
9705 12131 12132 1
9706 12131 12133 1
9707 12131 12134 1
9708 12131 12135 1
9709 12136 12137 1
9710 12136 12138 1
9711 12136 12139 1
9712 12136 12140 1
9713 12141 12142 1
9714 12141 12143 1
9715 12141 12144 1
9716 12141 12145 1
9717 12146 12147 1
9718 12146 12148 1
9719 12146 12149 1
9720 12146 12150 1
9721 12151 12152 1
9722 12151 12153 1
9723 12151 12154 1
9724 12151 12155 1
9725 12156 12157 1
9726 12156 12158 1
9727 12156 12159 1
9728 12156 12160 1
9729 12161 12162 1
9730 12161 12163 1
9731 12161 12164 1
9732 12161 12165 1
9733 12166 12167 1
9734 12166 12168 1
9735 12166 12169 1
9736 12166 12170 1
9737 12171 12172 1
9738 12171 12173 1
9739 12171 12174 1
9740 12171 12175 1
9741 12176 12177 1
9742 12176 12178 1
9743 12176 12179 1
9744 12176 12180 1
9745 12181 12182 1
9746 12181 12183 1
9747 12181 12184 1
9748 12181 12185 1
9749 12186 12187 1
9750 12186 12188 1
9751 12186 12189 1
9752 12186 12190 1
9753 12191 12192 1
9754 12191 12193 1
9755 12191 12194 1
9756 12191 12195 1
9757 12196 12197 1
9758 12196 12198 1
9759 12196 12199 1
9760 12196 12200 1
9761 12201 12202 1
9762 12201 12203 1
9763 12201 12204 1
9764 12201 12205 1
9765 12206 12207 1
9766 12206 12208 1
9767 12206 12209 1
9768 12206 12210 1
9769 12211 12212 1
9770 12211 12213 1
9771 12211 12214 1
9772 12211 12215 1
9773 12216 12217 1
9774 12216 12218 1
9775 12216 12219 1
9776 12216 12220 1
9777 12221 12222 1
9778 12221 12223 1
9779 12221 12224 1
9780 12221 12225 1
9781 12226 12227 1
9782 12226 12228 1
9783 12226 12229 1
9784 12226 12230 1
9785 12231 12232 1
9786 12231 12233 1
9787 12231 12234 1
9788 12231 12235 1
9789 12236 12237 1
9790 12236 12238 1
9791 12236 12239 1
9792 12236 12240 1
9793 12241 12242 1
9794 12241 12243 1
9795 12241 12244 1
9796 12241 12245 1
9797 12246 12247 1
9798 12246 12248 1
9799 12246 12249 1
9800 12246 12250 1
9801 12251 12252 1
9802 12251 12253 1
9803 12251 12254 1
9804 12251 12255 1
9805 12256 12257 1
9806 12256 12258 1
9807 12256 12259 1
9808 12256 12260 1
9809 12261 12262 1
9810 12261 12263 1
9811 12261 12264 1
9812 12261 12265 1
9813 12266 12267 1
9814 12266 12268 1
9815 12266 12269 1
9816 12266 12270 1
9817 12271 12272 1
9818 12271 12273 1
9819 12271 12274 1
9820 12271 12275 1
9821 12276 12277 1
9822 12276 12278 1
9823 12276 12279 1
9824 12276 12280 1
9825 12281 12282 1
9826 12281 12283 1
9827 12281 12284 1
9828 12281 12285 1
9829 12286 12287 1
9830 12286 12288 1
9831 12286 12289 1
9832 12286 12290 1
9833 12291 12292 1
9834 12291 12293 1
9835 12291 12294 1
9836 12291 12295 1
9837 12296 12297 1
9838 12296 12298 1
9839 12296 12299 1
9840 12296 12300 1
9841 12301 12302 1
9842 12301 12303 1
9843 12301 12304 1
9844 12301 12305 1
9845 12306 12307 1
9846 12306 12308 1
9847 12306 12309 1
9848 12306 12310 1
9849 12311 12312 1
9850 12311 12313 1
9851 12311 12314 1
9852 12311 12315 1
9853 12316 12317 1
9854 12316 12318 1
9855 12316 12319 1
9856 12316 12320 1
9857 12321 12322 1
9858 12321 12323 1
9859 12321 12324 1
9860 12321 12325 1
9861 12326 12327 1
9862 12326 12328 1
9863 12326 12329 1
9864 12326 12330 1
9865 12331 12332 1
9866 12331 12333 1
9867 12331 12334 1
9868 12331 12335 1
9869 12336 12337 1
9870 12336 12338 1
9871 12336 12339 1
9872 12336 12340 1
9873 12341 12342 1
9874 12341 12343 1
9875 12341 12344 1
9876 12341 12345 1
9877 12346 12347 1
9878 12346 12348 1
9879 12346 12349 1
9880 12346 12350 1
9881 12351 12352 1
9882 12351 12353 1
9883 12351 12354 1
9884 12351 12355 1
9885 12356 12357 1
9886 12356 12358 1
9887 12356 12359 1
9888 12356 12360 1
9889 12361 12362 1
9890 12361 12363 1
9891 12361 12364 1
9892 12361 12365 1
9893 12366 12367 1
9894 12366 12368 1
9895 12366 12369 1
9896 12366 12370 1
9897 12371 12372 1
9898 12371 12373 1
9899 12371 12374 1
9900 12371 12375 1
9901 12376 12377 1
9902 12376 12378 1
9903 12376 12379 1
9904 12376 12380 1
9905 12381 12382 1
9906 12381 12383 1
9907 12381 12384 1
9908 12381 12385 1
9909 12386 12387 1
9910 12386 12388 1
9911 12386 12389 1
9912 12386 12390 1
9913 12391 12392 1
9914 12391 12393 1
9915 12391 12394 1
9916 12391 12395 1
9917 12396 12397 1
9918 12396 12398 1
9919 12396 12399 1
9920 12396 12400 1
9921 12401 12402 1
9922 12401 12403 1
9923 12401 12404 1
9924 12401 12405 1
9925 12406 12409 1
9926 12406 12410 1
9927 12406 12407 1
9928 12406 12408 1
9929 12411 12412 1
9930 12411 12413 1
9931 12411 12414 1
9932 12411 12415 1
9933 12416 12417 1
9934 12416 12418 1
9935 12416 12419 1
9936 12416 12420 1
9937 12421 12422 1
9938 12421 12423 1
9939 12421 12424 1
9940 12421 12425 1
9941 12426 12427 1
9942 12426 12428 1
9943 12426 12429 1
9944 12426 12430 1
9945 12431 12432 1
9946 12431 12433 1
9947 12431 12434 1
9948 12431 12435 1
9949 12436 12437 1
9950 12436 12438 1
9951 12436 12439 1
9952 12436 12440 1
9953 12441 12442 1
9954 12441 12443 1
9955 12441 12444 1
9956 12441 12445 1
9957 12446 12447 1
9958 12446 12448 1
9959 12446 12449 1
9960 12446 12450 1
9961 12451 12452 1
9962 12451 12453 1
9963 12451 12454 1
9964 12451 12455 1
9965 12456 12457 1
9966 12456 12458 1
9967 12456 12459 1
9968 12456 12460 1
9969 12461 12462 1
9970 12461 12463 1
9971 12461 12464 1
9972 12461 12465 1
9973 12466 12467 1
9974 12466 12468 1
9975 12466 12469 1
9976 12466 12470 1
9977 12471 12472 1
9978 12471 12473 1
9979 12471 12474 1
9980 12471 12475 1
9981 12476 12477 1
9982 12476 12478 1
9983 12476 12479 1
9984 12476 12480 1
9985 12481 12482 1
9986 12481 12483 1
9987 12481 12484 1
9988 12481 12485 1
9989 12486 12487 1
9990 12486 12488 1
9991 12486 12489 1
9992 12486 12490 1
9993 12491 12495 1
9994 12491 12492 1
9995 12491 12493 1
9996 12491 12494 1
9997 12496 12497 1
9998 12496 12498 1
9999 12496 12499 1
10000 12496 12500 1
10001 12501 12502 1
10002 12501 12503 1
10003 12501 12504 1
10004 12501 12505 1
10005 12506 12507 1
10006 12506 12508 1
10007 12506 12509 1
10008 12506 12510 1
10009 12511 12512 1
10010 12511 12513 1
10011 12511 12514 1
10012 12511 12515 1
10013 12516 12517 1
10014 12516 12518 1
10015 12516 12519 1
10016 12516 12520 1
10017 12521 12522 1
10018 12521 12523 1
10019 12521 12524 1
10020 12521 12525 1
10021 12526 12527 1
10022 12526 12528 1
10023 12526 12529 1
10024 12526 12530 1
10025 12531 12534 1
10026 12531 12535 1
10027 12531 12532 1
10028 12531 12533 1
10029 12536 12537 1
10030 12536 12539 1
10031 12536 12540 1
10032 12536 12538 1
10033 12541 12542 1
10034 12541 12543 1
10035 12541 12544 1
10036 12541 12545 1
10037 12546 12547 1
10038 12546 12548 1
10039 12546 12549 1
10040 12546 12550 1
10041 12551 12552 1
10042 12551 12553 1
10043 12551 12554 1
10044 12551 12555 1
10045 12556 12557 1
10046 12556 12558 1
10047 12556 12559 1
10048 12556 12560 1
10049 12561 12562 1
10050 12561 12563 1
10051 12561 12564 1
10052 12561 12565 1
10053 12566 12567 1
10054 12566 12568 1
10055 12566 12569 1
10056 12566 12570 1
10057 12571 12572 1
10058 12571 12573 1
10059 12571 12574 1
10060 12571 12575 1
10061 12576 12579 1
10062 12576 12580 1
10063 12576 12577 1
10064 12576 12578 1
10065 12581 12582 1
10066 12581 12583 1
10067 12581 12584 1
10068 12581 12585 1
10069 12586 12587 1
10070 12586 12588 1
10071 12586 12589 1
10072 12586 12590 1
10073 12591 12592 1
10074 12591 12593 1
10075 12591 12594 1
10076 12591 12595 1
10077 12596 12597 1
10078 12596 12598 1
10079 12596 12599 1
10080 12596 12600 1
10081 12601 12602 1
10082 12601 12603 1
10083 12601 12604 1
10084 12601 12605 1
10085 12606 12607 1
10086 12606 12608 1
10087 12606 12609 1
10088 12606 12610 1
10089 12611 12612 1
10090 12611 12613 1
10091 12611 12614 1
10092 12611 12615 1
10093 12616 12617 1
10094 12616 12618 1
10095 12616 12619 1
10096 12616 12620 1
10097 12621 12622 1
10098 12621 12623 1
10099 12621 12624 1
10100 12621 12625 1
10101 12626 12627 1
10102 12626 12628 1
10103 12626 12629 1
10104 12626 12630 1
10105 12631 12632 1
10106 12631 12633 1
10107 12631 12634 1
10108 12631 12635 1
10109 12636 12637 1
10110 12636 12638 1
10111 12636 12639 1
10112 12636 12640 1
10113 12641 12642 1
10114 12641 12643 1
10115 12641 12644 1
10116 12641 12645 1
10117 12646 12647 1
10118 12646 12648 1
10119 12646 12649 1
10120 12646 12650 1
10121 12651 12652 1
10122 12651 12653 1
10123 12651 12654 1
10124 12651 12655 1
10125 12656 12657 1
10126 12656 12658 1
10127 12656 12659 1
10128 12656 12660 1
10129 12661 12662 1
10130 12661 12663 1
10131 12661 12664 1
10132 12661 12665 1
10133 12666 12667 1
10134 12666 12668 1
10135 12666 12669 1
10136 12666 12670 1
10137 12671 12672 1
10138 12671 12673 1
10139 12671 12674 1
10140 12671 12675 1
10141 12676 12677 1
10142 12676 12678 1
10143 12676 12679 1
10144 12676 12680 1
10145 12681 12682 1
10146 12681 12683 1
10147 12681 12684 1
10148 12681 12685 1
10149 12686 12687 1
10150 12686 12688 1
10151 12686 12689 1
10152 12686 12690 1
10153 12691 12692 1
10154 12691 12693 1
10155 12691 12694 1
10156 12691 12695 1
10157 12696 12697 1
10158 12696 12698 1
10159 12696 12699 1
10160 12696 12700 1
10161 12701 12702 1
10162 12701 12703 1
10163 12701 12704 1
10164 12701 12705 1
10165 12706 12707 1
10166 12706 12708 1
10167 12706 12709 1
10168 12706 12710 1
10169 12711 12712 1
10170 12711 12713 1
10171 12711 12714 1
10172 12711 12715 1
10173 12716 12717 1
10174 12716 12718 1
10175 12716 12719 1
10176 12716 12720 1
10177 12721 12722 1
10178 12721 12723 1
10179 12721 12724 1
10180 12721 12725 1
10181 12726 12727 1
10182 12726 12728 1
10183 12726 12729 1
10184 12726 12730 1
10185 12731 12732 1
10186 12731 12733 1
10187 12731 12734 1
10188 12731 12735 1
10189 12736 12737 1
10190 12736 12738 1
10191 12736 12739 1
10192 12736 12740 1
10193 12741 12742 1
10194 12741 12743 1
10195 12741 12744 1
10196 12741 12745 1
10197 12746 12748 1
10198 12746 12749 1
10199 12746 12747 1
10200 12746 12750 1
10201 12751 12752 1
10202 12751 12753 1
10203 12751 12754 1
10204 12751 12755 1
10205 12756 12757 1
10206 12756 12758 1
10207 12756 12759 1
10208 12756 12760 1
10209 12761 12762 1
10210 12761 12763 1
10211 12761 12764 1
10212 12761 12765 1
10213 12766 12767 1
10214 12766 12768 1
10215 12766 12769 1
10216 12766 12770 1
10217 12771 12772 1
10218 12771 12773 1
10219 12771 12774 1
10220 12771 12775 1
10221 12776 12777 1
10222 12776 12778 1
10223 12776 12779 1
10224 12776 12780 1
10225 12781 12782 1
10226 12781 12783 1
10227 12781 12784 1
10228 12781 12785 1
10229 12786 12789 1
10230 12786 12790 1
10231 12786 12787 1
10232 12786 12788 1
10233 12791 12792 1
10234 12791 12793 1
10235 12791 12794 1
10236 12791 12795 1
10237 12796 12797 1
10238 12796 12798 1
10239 12796 12799 1
10240 12796 12800 1
10241 12801 12802 1
10242 12801 12803 1
10243 12801 12804 1
10244 12801 12805 1
10245 12806 12807 1
10246 12806 12808 1
10247 12806 12809 1
10248 12806 12810 1
10249 12811 12812 1
10250 12811 12813 1
10251 12811 12814 1
10252 12811 12815 1
10253 12816 12817 1
10254 12816 12818 1
10255 12816 12819 1
10256 12816 12820 1
10257 12821 12822 1
10258 12821 12823 1
10259 12821 12824 1
10260 12821 12825 1
10261 12826 12827 1
10262 12826 12828 1
10263 12826 12829 1
10264 12826 12830 1
10265 12831 12832 1
10266 12831 12833 1
10267 12831 12834 1
10268 12831 12835 1
10269 12836 12837 1
10270 12836 12838 1
10271 12836 12839 1
10272 12836 12840 1
10273 12841 12842 1
10274 12841 12843 1
10275 12841 12844 1
10276 12841 12845 1
10277 12846 12847 1
10278 12846 12848 1
10279 12846 12849 1
10280 12846 12850 1
10281 12851 12852 1
10282 12851 12853 1
10283 12851 12854 1
10284 12851 12855 1
10285 12856 12857 1
10286 12856 12858 1
10287 12856 12859 1
10288 12856 12860 1
10289 12861 12862 1
10290 12861 12863 1
10291 12861 12864 1
10292 12861 12865 1
10293 12866 12867 1
10294 12866 12868 1
10295 12866 12869 1
10296 12866 12870 1
10297 12871 12872 1
10298 12871 12873 1
10299 12871 12874 1
10300 12871 12875 1
10301 12876 12877 1
10302 12876 12878 1
10303 12876 12879 1
10304 12876 12880 1
10305 12881 12882 1
10306 12881 12883 1
10307 12881 12884 1
10308 12881 12885 1
10309 12886 12887 1
10310 12886 12888 1
10311 12886 12889 1
10312 12886 12890 1
10313 12891 12892 1
10314 12891 12893 1
10315 12891 12894 1
10316 12891 12895 1
10317 12896 12897 1
10318 12896 12898 1
10319 12896 12899 1
10320 12896 12900 1
10321 12901 12902 1
10322 12901 12903 1
10323 12901 12904 1
10324 12901 12905 1
10325 12906 12907 1
10326 12906 12908 1
10327 12906 12909 1
10328 12906 12910 1
10329 12911 12915 1
10330 12911 12912 1
10331 12911 12913 1
10332 12911 12914 1
10333 12916 12917 1
10334 12916 12918 1
10335 12916 12919 1
10336 12916 12920 1
10337 12921 12922 1
10338 12921 12923 1
10339 12921 12924 1
10340 12921 12925 1
10341 12926 12927 1
10342 12926 12928 1
10343 12926 12929 1
10344 12926 12930 1
10345 12931 12932 1
10346 12931 12933 1
10347 12931 12934 1
10348 12931 12935 1
10349 12936 12937 1
10350 12936 12938 1
10351 12936 12939 1
10352 12936 12940 1
10353 12941 12942 1
10354 12941 12943 1
10355 12941 12944 1
10356 12941 12945 1
10357 12946 12947 1
10358 12946 12948 1
10359 12946 12949 1
10360 12946 12950 1
10361 12951 12952 1
10362 12951 12953 1
10363 12951 12954 1
10364 12951 12955 1
10365 12956 12957 1
10366 12956 12958 1
10367 12956 12959 1
10368 12956 12960 1
10369 12961 12962 1
10370 12961 12963 1
10371 12961 12964 1
10372 12961 12965 1
10373 12966 12967 1
10374 12966 12968 1
10375 12966 12969 1
10376 12966 12970 1
10377 12971 12972 1
10378 12971 12973 1
10379 12971 12974 1
10380 12971 12975 1
10381 12976 12977 1
10382 12976 12978 1
10383 12976 12979 1
10384 12976 12980 1
10385 12981 12982 1
10386 12981 12983 1
10387 12981 12984 1
10388 12981 12985 1
10389 12986 12987 1
10390 12986 12988 1
10391 12986 12989 1
10392 12986 12990 1
10393 12991 12992 1
10394 12991 12993 1
10395 12991 12994 1
10396 12991 12995 1
10397 12996 12999 1
10398 12996 13000 1
10399 12996 12997 1
10400 12996 12998 1
10401 13001 13002 1
10402 13001 13003 1
10403 13001 13004 1
10404 13001 13005 1
10405 13006 13007 1
10406 13006 13008 1
10407 13006 13009 1
10408 13006 13010 1
10409 13011 13012 1
10410 13011 13013 1
10411 13011 13014 1
10412 13011 13015 1
10413 13016 13017 1
10414 13016 13018 1
10415 13016 13019 1
10416 13016 13020 1
10417 13021 13022 1
10418 13021 13023 1
10419 13021 13024 1
10420 13021 13025 1
10421 13026 13027 1
10422 13026 13028 1
10423 13026 13029 1
10424 13026 13030 1
10425 13031 13032 1
10426 13031 13033 1
10427 13031 13034 1
10428 13031 13035 1
10429 13036 13037 1
10430 13036 13038 1
10431 13036 13039 1
10432 13036 13040 1
10433 13041 13042 1
10434 13041 13043 1
10435 13041 13044 1
10436 13041 13045 1
10437 13046 13047 1
10438 13046 13048 1
10439 13046 13049 1
10440 13046 13050 1
10441 13051 13052 1
10442 13051 13053 1
10443 13051 13054 1
10444 13051 13055 1
10445 13056 13057 1
10446 13056 13058 1
10447 13056 13059 1
10448 13056 13060 1
10449 13061 13062 1
10450 13061 13063 1
10451 13061 13064 1
10452 13061 13065 1
10453 13066 13067 1
10454 13066 13068 1
10455 13066 13069 1
10456 13066 13070 1
10457 13071 13072 1
10458 13071 13073 1
10459 13071 13074 1
10460 13071 13075 1
10461 13076 13077 1
10462 13076 13078 1
10463 13076 13079 1
10464 13076 13080 1
10465 13081 13083 1
10466 13081 13084 1
10467 13081 13085 1
10468 13081 13082 1
10469 13086 13087 1
10470 13086 13088 1
10471 13086 13089 1
10472 13086 13090 1
10473 13091 13092 1
10474 13091 13093 1
10475 13091 13094 1
10476 13091 13095 1
10477 13096 13100 1
10478 13096 13097 1
10479 13096 13098 1
10480 13096 13099 1
10481 13101 13102 1
10482 13101 13103 1
10483 13101 13104 1
10484 13101 13105 1
10485 13106 13107 1
10486 13106 13108 1
10487 13106 13109 1
10488 13106 13110 1
10489 13111 13112 1
10490 13111 13113 1
10491 13111 13114 1
10492 13111 13115 1
10493 13116 13117 1
10494 13116 13118 1
10495 13116 13119 1
10496 13116 13120 1
10497 13121 13122 1
10498 13121 13123 1
10499 13121 13124 1
10500 13121 13125 1
10501 13126 13127 1
10502 13126 13128 1
10503 13126 13129 1
10504 13126 13130 1
10505 13131 13132 1
10506 13131 13133 1
10507 13131 13134 1
10508 13131 13135 1
10509 13136 13137 1
10510 13136 13138 1
10511 13136 13139 1
10512 13136 13140 1
10513 13141 13142 1
10514 13141 13143 1
10515 13141 13144 1
10516 13141 13145 1
10517 13146 13147 1
10518 13146 13148 1
10519 13146 13149 1
10520 13146 13150 1
10521 13151 13152 1
10522 13151 13153 1
10523 13151 13154 1
10524 13151 13155 1
10525 13156 13157 1
10526 13156 13158 1
10527 13156 13159 1
10528 13156 13160 1
10529 13161 13162 1
10530 13161 13163 1
10531 13161 13164 1
10532 13161 13165 1
10533 13166 13167 1
10534 13166 13168 1
10535 13166 13169 1
10536 13166 13170 1
10537 13171 13172 1
10538 13171 13173 1
10539 13171 13174 1
10540 13171 13175 1
10541 13176 13177 1
10542 13176 13178 1
10543 13176 13179 1
10544 13176 13180 1
10545 13181 13182 1
10546 13181 13183 1
10547 13181 13184 1
10548 13181 13185 1
10549 13186 13187 1
10550 13186 13188 1
10551 13186 13189 1
10552 13186 13190 1
10553 13191 13192 1
10554 13191 13193 1
10555 13191 13194 1
10556 13191 13195 1
10557 13196 13197 1
10558 13196 13198 1
10559 13196 13199 1
10560 13196 13200 1
10561 13201 13202 1
10562 13201 13203 1
10563 13201 13204 1
10564 13201 13205 1
10565 13206 13207 1
10566 13206 13208 1
10567 13206 13209 1
10568 13206 13210 1
10569 13211 13212 1
10570 13211 13213 1
10571 13211 13214 1
10572 13211 13215 1
10573 13216 13217 1
10574 13216 13218 1
10575 13216 13219 1
10576 13216 13220 1
10577 13221 13222 1
10578 13221 13223 1
10579 13221 13224 1
10580 13221 13225 1
10581 13226 13227 1
10582 13226 13228 1
10583 13226 13229 1
10584 13226 13230 1
10585 13231 13232 1
10586 13231 13233 1
10587 13231 13234 1
10588 13231 13235 1
10589 13236 13237 1
10590 13236 13238 1
10591 13236 13239 1
10592 13236 13240 1
10593 13241 13242 1
10594 13241 13243 1
10595 13241 13244 1
10596 13241 13245 1
10597 13246 13250 1
10598 13246 13247 1
10599 13246 13248 1
10600 13246 13249 1
10601 13251 13252 1
10602 13251 13253 1
10603 13251 13254 1
10604 13251 13255 1
10605 13256 13257 1
10606 13256 13258 1
10607 13256 13259 1
10608 13256 13260 1
10609 13261 13262 1
10610 13261 13263 1
10611 13261 13264 1
10612 13261 13265 1
10613 13266 13267 1
10614 13266 13268 1
10615 13266 13269 1
10616 13266 13270 1
10617 13271 13272 1
10618 13271 13273 1
10619 13271 13274 1
10620 13271 13275 1
10621 13276 13277 1
10622 13276 13278 1
10623 13276 13279 1
10624 13276 13280 1
10625 13281 13282 1
10626 13281 13283 1
10627 13281 13284 1
10628 13281 13285 1
10629 13286 13287 1
10630 13286 13288 1
10631 13286 13289 1
10632 13286 13290 1
10633 13291 13292 1
10634 13291 13293 1
10635 13291 13294 1
10636 13291 13295 1
10637 13296 13297 1
10638 13296 13298 1
10639 13296 13299 1
10640 13296 13300 1
10641 13301 13302 1
10642 13301 13303 1
10643 13301 13305 1
10644 13301 13304 1
10645 13306 13307 1
10646 13306 13308 1
10647 13306 13309 1
10648 13306 13310 1
10649 13311 13312 1
10650 13311 13313 1
10651 13311 13314 1
10652 13311 13315 1
10653 13316 13317 1
10654 13316 13318 1
10655 13316 13319 1
10656 13316 13320 1
10657 13321 13322 1
10658 13321 13323 1
10659 13321 13324 1
10660 13321 13325 1
10661 13326 13327 1
10662 13326 13328 1
10663 13326 13329 1
10664 13326 13330 1
10665 13331 13335 1
10666 13331 13332 1
10667 13331 13333 1
10668 13331 13334 1
10669 13336 13337 1
10670 13336 13338 1
10671 13336 13339 1
10672 13336 13340 1
10673 13341 13342 1
10674 13341 13343 1
10675 13341 13344 1
10676 13341 13345 1
10677 13346 13347 1
10678 13346 13348 1
10679 13346 13349 1
10680 13346 13350 1
10681 13351 13352 1
10682 13351 13353 1
10683 13351 13354 1
10684 13351 13355 1
10685 13356 13357 1
10686 13356 13358 1
10687 13356 13359 1
10688 13356 13360 1
10689 13361 13362 1
10690 13361 13363 1
10691 13361 13364 1
10692 13361 13365 1
10693 13366 13367 1
10694 13366 13368 1
10695 13366 13369 1
10696 13366 13370 1
10697 13371 13372 1
10698 13371 13373 1
10699 13371 13374 1
10700 13371 13375 1
10701 13376 13377 1
10702 13376 13378 1
10703 13376 13379 1
10704 13376 13380 1
10705 13381 13382 1
10706 13381 13383 1
10707 13381 13384 1
10708 13381 13385 1
10709 13386 13387 1
10710 13386 13388 1
10711 13386 13389 1
10712 13386 13390 1
10713 13391 13392 1
10714 13391 13393 1
10715 13391 13394 1
10716 13391 13395 1
10717 13396 13397 1
10718 13396 13398 1
10719 13396 13399 1
10720 13396 13400 1
10721 13401 13402 1
10722 13401 13403 1
10723 13401 13404 1
10724 13401 13405 1
10725 13406 13407 1
10726 13406 13408 1
10727 13406 13409 1
10728 13406 13410 1
10729 13411 13412 1
10730 13411 13413 1
10731 13411 13414 1
10732 13411 13415 1
10733 13416 13419 1
10734 13416 13420 1
10735 13416 13417 1
10736 13416 13418 1
10737 13421 13422 1
10738 13421 13423 1
10739 13421 13424 1
10740 13421 13425 1
10741 13426 13427 1
10742 13426 13428 1
10743 13426 13429 1
10744 13426 13430 1
10745 13431 13432 1
10746 13431 13433 1
10747 13431 13434 1
10748 13431 13435 1
10749 13436 13437 1
10750 13436 13438 1
10751 13436 13439 1
10752 13436 13440 1
10753 13441 13442 1
10754 13441 13443 1
10755 13441 13444 1
10756 13441 13445 1
10757 13446 13447 1
10758 13446 13448 1
10759 13446 13449 1
10760 13446 13450 1
10761 13451 13452 1
10762 13451 13453 1
10763 13451 13454 1
10764 13451 13455 1
10765 13456 13457 1
10766 13456 13458 1
10767 13456 13459 1
10768 13456 13460 1
10769 13461 13462 1
10770 13461 13463 1
10771 13461 13464 1
10772 13461 13465 1
10773 13466 13467 1
10774 13466 13468 1
10775 13466 13469 1
10776 13466 13470 1
10777 13471 13472 1
10778 13471 13473 1
10779 13471 13474 1
10780 13471 13475 1
10781 13476 13477 1
10782 13476 13478 1
10783 13476 13479 1
10784 13476 13480 1
10785 13481 13482 1
10786 13481 13483 1
10787 13481 13484 1
10788 13481 13485 1
10789 13486 13487 1
10790 13486 13488 1
10791 13486 13489 1
10792 13486 13490 1
10793 13491 13492 1
10794 13491 13493 1
10795 13491 13494 1
10796 13491 13495 1
10797 13496 13497 1
10798 13496 13498 1
10799 13496 13499 1
10800 13496 13500 1
10801 13501 13503 1
10802 13501 13504 1
10803 13501 13505 1
10804 13501 13502 1
10805 13506 13507 1
10806 13506 13508 1
10807 13506 13509 1
10808 13506 13510 1
10809 13511 13512 1
10810 13511 13513 1
10811 13511 13514 1
10812 13511 13515 1
10813 13516 13517 1
10814 13516 13518 1
10815 13516 13519 1
10816 13516 13520 1
10817 13521 13522 1
10818 13521 13523 1
10819 13521 13524 1
10820 13521 13525 1
10821 13526 13527 1
10822 13526 13528 1
10823 13526 13529 1
10824 13526 13530 1
10825 13531 13532 1
10826 13531 13533 1
10827 13531 13534 1
10828 13531 13535 1
10829 13536 13537 1
10830 13536 13538 1
10831 13536 13539 1
10832 13536 13540 1
10833 13541 13542 1
10834 13541 13543 1
10835 13541 13544 1
10836 13541 13545 1
10837 13546 13547 1
10838 13546 13548 1
10839 13546 13549 1
10840 13546 13550 1
10841 13551 13552 1
10842 13551 13553 1
10843 13551 13554 1
10844 13551 13555 1
10845 13556 13557 1
10846 13556 13558 1
10847 13556 13559 1
10848 13556 13560 1
10849 13561 13562 1
10850 13561 13563 1
10851 13561 13564 1
10852 13561 13565 1
10853 13566 13567 1
10854 13566 13568 1
10855 13566 13569 1
10856 13566 13570 1
10857 13571 13572 1
10858 13571 13573 1
10859 13571 13574 1
10860 13571 13575 1
10861 13576 13577 1
10862 13576 13578 1
10863 13576 13579 1
10864 13576 13580 1
10865 13581 13582 1
10866 13581 13583 1
10867 13581 13584 1
10868 13581 13585 1
10869 13586 13587 1
10870 13586 13588 1
10871 13586 13589 1
10872 13586 13590 1
10873 13591 13592 1
10874 13591 13593 1
10875 13591 13594 1
10876 13591 13595 1
10877 13596 13597 1
10878 13596 13598 1
10879 13596 13599 1
10880 13596 13600 1
10881 13601 13602 1
10882 13601 13603 1
10883 13601 13604 1
10884 13601 13605 1
10885 13606 13607 1
10886 13606 13608 1
10887 13606 13609 1
10888 13606 13610 1
10889 13611 13612 1
10890 13611 13613 1
10891 13611 13614 1
10892 13611 13615 1
10893 13616 13617 1
10894 13616 13618 1
10895 13616 13619 1
10896 13616 13620 1
10897 13621 13622 1
10898 13621 13623 1
10899 13621 13624 1
10900 13621 13625 1
10901 13626 13627 1
10902 13626 13628 1
10903 13626 13629 1
10904 13626 13630 1
10905 13631 13632 1
10906 13631 13633 1
10907 13631 13634 1
10908 13631 13635 1
10909 13636 13637 1
10910 13636 13638 1
10911 13636 13639 1
10912 13636 13640 1
10913 13641 13642 1
10914 13641 13643 1
10915 13641 13644 1
10916 13641 13645 1
10917 13646 13647 1
10918 13646 13648 1
10919 13646 13649 1
10920 13646 13650 1
10921 13651 13652 1
10922 13651 13653 1
10923 13651 13654 1
10924 13651 13655 1
10925 13656 13657 1
10926 13656 13658 1
10927 13656 13659 1
10928 13656 13660 1
10929 13661 13662 1
10930 13661 13663 1
10931 13661 13664 1
10932 13661 13665 1
10933 13666 13667 1
10934 13666 13668 1
10935 13666 13669 1
10936 13666 13670 1
10937 13671 13672 1
10938 13671 13673 1
10939 13671 13674 1
10940 13671 13675 1
10941 13676 13677 1
10942 13676 13678 1
10943 13676 13679 1
10944 13676 13680 1
10945 13681 13682 1
10946 13681 13683 1
10947 13681 13684 1
10948 13681 13685 1
10949 13686 13687 1
10950 13686 13688 1
10951 13686 13689 1
10952 13686 13690 1
10953 13691 13692 1
10954 13691 13693 1
10955 13691 13694 1
10956 13691 13695 1
10957 13696 13697 1
10958 13696 13698 1
10959 13696 13699 1
10960 13696 13700 1
10961 13701 13702 1
10962 13701 13703 1
10963 13701 13704 1
10964 13701 13705 1
10965 13706 13707 1
10966 13706 13708 1
10967 13706 13709 1
10968 13706 13710 1
10969 13711 13713 1
10970 13711 13714 1
10971 13711 13715 1
10972 13711 13712 1
10973 13716 13717 1
10974 13716 13718 1
10975 13716 13719 1
10976 13716 13720 1
10977 13721 13722 1
10978 13721 13723 1
10979 13721 13724 1
10980 13721 13725 1
10981 13726 13727 1
10982 13726 13728 1
10983 13726 13729 1
10984 13726 13730 1
10985 13731 13732 1
10986 13731 13733 1
10987 13731 13734 1
10988 13731 13735 1
10989 13736 13737 1
10990 13736 13738 1
10991 13736 13739 1
10992 13736 13740 1
10993 13741 13742 1
10994 13741 13743 1
10995 13741 13744 1
10996 13741 13745 1
10997 13746 13747 1
10998 13746 13748 1
10999 13746 13749 1
11000 13746 13750 1
11001 13751 13755 1
11002 13751 13752 1
11003 13751 13753 1
11004 13751 13754 1
11005 13756 13757 1
11006 13756 13758 1
11007 13756 13759 1
11008 13756 13760 1
11009 13761 13762 1
11010 13761 13763 1
11011 13761 13764 1
11012 13761 13765 1
11013 13766 13767 1
11014 13766 13768 1
11015 13766 13769 1
11016 13766 13770 1
11017 13771 13772 1
11018 13771 13773 1
11019 13771 13774 1
11020 13771 13775 1
11021 13776 13777 1
11022 13776 13778 1
11023 13776 13779 1
11024 13776 13780 1
11025 13781 13782 1
11026 13781 13783 1
11027 13781 13784 1
11028 13781 13785 1
11029 13786 13787 1
11030 13786 13788 1
11031 13786 13789 1
11032 13786 13790 1
11033 13791 13792 1
11034 13791 13793 1
11035 13791 13794 1
11036 13791 13795 1
11037 13796 13797 1
11038 13796 13798 1
11039 13796 13799 1
11040 13796 13800 1
11041 13801 13802 1
11042 13801 13803 1
11043 13801 13804 1
11044 13801 13805 1
11045 13806 13807 1
11046 13806 13808 1
11047 13806 13809 1
11048 13806 13810 1
11049 13811 13812 1
11050 13811 13813 1
11051 13811 13814 1
11052 13811 13815 1
11053 13816 13817 1
11054 13816 13818 1
11055 13816 13819 1
11056 13816 13820 1
11057 13821 13822 1
11058 13821 13823 1
11059 13821 13824 1
11060 13821 13825 1
11061 13826 13827 1
11062 13826 13828 1
11063 13826 13829 1
11064 13826 13830 1
11065 13831 13832 1
11066 13831 13833 1
11067 13831 13834 1
11068 13831 13835 1
11069 13836 13839 1
11070 13836 13840 1
11071 13836 13837 1
11072 13836 13838 1
11073 13841 13842 1
11074 13841 13843 1
11075 13841 13844 1
11076 13841 13845 1
11077 13846 13847 1
11078 13846 13848 1
11079 13846 13849 1
11080 13846 13850 1
11081 13851 13852 1
11082 13851 13853 1
11083 13851 13854 1
11084 13851 13855 1
11085 13856 13857 1
11086 13856 13858 1
11087 13856 13859 1
11088 13856 13860 1
11089 13861 13862 1
11090 13861 13863 1
11091 13861 13864 1
11092 13861 13865 1
11093 13866 13867 1
11094 13866 13868 1
11095 13866 13869 1
11096 13866 13870 1
11097 13871 13872 1
11098 13871 13873 1
11099 13871 13874 1
11100 13871 13875 1
11101 13876 13877 1
11102 13876 13878 1
11103 13876 13879 1
11104 13876 13880 1
11105 13881 13882 1
11106 13881 13883 1
11107 13881 13884 1
11108 13881 13885 1
11109 13886 13887 1
11110 13886 13888 1
11111 13886 13889 1
11112 13886 13890 1
11113 13891 13892 1
11114 13891 13893 1
11115 13891 13894 1
11116 13891 13895 1
11117 13896 13897 1
11118 13896 13898 1
11119 13896 13899 1
11120 13896 13900 1
11121 13901 13902 1
11122 13901 13903 1
11123 13901 13904 1
11124 13901 13905 1
11125 13906 13907 1
11126 13906 13908 1
11127 13906 13909 1
11128 13906 13910 1
11129 13911 13912 1
11130 13911 13913 1
11131 13911 13914 1
11132 13911 13915 1
11133 13916 13917 1
11134 13916 13918 1
11135 13916 13919 1
11136 13916 13920 1
11137 13921 13923 1
11138 13921 13924 1
11139 13921 13925 1
11140 13921 13922 1
11141 13926 13927 1
11142 13926 13928 1
11143 13926 13929 1
11144 13926 13930 1
11145 13931 13932 1
11146 13931 13933 1
11147 13931 13934 1
11148 13931 13935 1
11149 13936 13937 1
11150 13936 13938 1
11151 13936 13939 1
11152 13936 13940 1
11153 13941 13942 1
11154 13941 13943 1
11155 13941 13944 1
11156 13941 13945 1
11157 13946 13947 1
11158 13946 13948 1
11159 13946 13949 1
11160 13946 13950 1
11161 13951 13952 1
11162 13951 13953 1
11163 13951 13954 1
11164 13951 13955 1
11165 13956 13957 1
11166 13956 13958 1
11167 13956 13959 1
11168 13956 13960 1
11169 13961 13962 1
11170 13961 13963 1
11171 13961 13964 1
11172 13961 13965 1
11173 13966 13967 1
11174 13966 13968 1
11175 13966 13969 1
11176 13966 13970 1
11177 13971 13972 1
11178 13971 13973 1
11179 13971 13974 1
11180 13971 13975 1
11181 13976 13977 1
11182 13976 13978 1
11183 13976 13979 1
11184 13976 13980 1
11185 13981 13982 1
11186 13981 13983 1
11187 13981 13984 1
11188 13981 13985 1
11189 13986 13987 1
11190 13986 13988 1
11191 13986 13989 1
11192 13986 13990 1
11193 13991 13992 1
11194 13991 13993 1
11195 13991 13994 1
11196 13991 13995 1
11197 13996 13997 1
11198 13996 13998 1
11199 13996 13999 1
11200 13996 14000 1
11201 14001 14002 1
11202 14001 14003 1
11203 14001 14004 1
11204 14001 14005 1
11205 14006 14007 1
11206 14006 14008 1
11207 14006 14009 1
11208 14006 14010 1
11209 14011 14012 1
11210 14011 14013 1
11211 14011 14014 1
11212 14011 14015 1
11213 14016 14017 1
11214 14016 14018 1
11215 14016 14019 1
11216 14016 14020 1
11217 14021 14022 1
11218 14021 14023 1
11219 14021 14024 1
11220 14021 14025 1
11221 14026 14027 1
11222 14026 14028 1
11223 14026 14029 1
11224 14026 14030 1
11225 14031 14032 1
11226 14031 14033 1
11227 14031 14034 1
11228 14031 14035 1
11229 14036 14037 1
11230 14036 14038 1
11231 14036 14039 1
11232 14036 14040 1
11233 14041 14042 1
11234 14041 14043 1
11235 14041 14044 1
11236 14041 14045 1
11237 14046 14047 1
11238 14046 14048 1
11239 14046 14049 1
11240 14046 14050 1
11241 14051 14052 1
11242 14051 14053 1
11243 14051 14054 1
11244 14051 14055 1
11245 14056 14057 1
11246 14056 14058 1
11247 14056 14059 1
11248 14056 14060 1
11249 14061 14062 1
11250 14061 14063 1
11251 14061 14064 1
11252 14061 14065 1
11253 14066 14067 1
11254 14066 14068 1
11255 14066 14069 1
11256 14066 14070 1
11257 14071 14072 1
11258 14071 14073 1
11259 14071 14074 1
11260 14071 14075 1
11261 14076 14077 1
11262 14076 14078 1
11263 14076 14079 1
11264 14076 14080 1
11265 14081 14082 1
11266 14081 14083 1
11267 14081 14084 1
11268 14081 14085 1
11269 14086 14087 1
11270 14086 14088 1
11271 14086 14089 1
11272 14086 14090 1
11273 14091 14092 1
11274 14091 14093 1
11275 14091 14094 1
11276 14091 14095 1
11277 14096 14097 1
11278 14096 14098 1
11279 14096 14099 1
11280 14096 14100 1
11281 14101 14102 1
11282 14101 14103 1
11283 14101 14104 1
11284 14101 14105 1
11285 14106 14107 1
11286 14106 14108 1
11287 14106 14109 1
11288 14106 14110 1
11289 14111 14112 1
11290 14111 14114 1
11291 14111 14115 1
11292 14111 14113 1
11293 14116 14117 1
11294 14116 14118 1
11295 14116 14119 1
11296 14116 14120 1
11297 14121 14122 1
11298 14121 14123 1
11299 14121 14124 1
11300 14121 14125 1
11301 14126 14127 1
11302 14126 14128 1
11303 14126 14129 1
11304 14126 14130 1
11305 14131 14132 1
11306 14131 14133 1
11307 14131 14134 1
11308 14131 14135 1
11309 14136 14137 1
11310 14136 14138 1
11311 14136 14139 1
11312 14136 14140 1
11313 14141 14142 1
11314 14141 14143 1
11315 14141 14144 1
11316 14141 14145 1
11317 14146 14147 1
11318 14146 14148 1
11319 14146 14150 1
11320 14146 14149 1
11321 14151 14152 1
11322 14151 14153 1
11323 14151 14154 1
11324 14151 14155 1
11325 14156 14157 1
11326 14156 14158 1
11327 14156 14159 1
11328 14156 14160 1
11329 14161 14162 1
11330 14161 14163 1
11331 14161 14164 1
11332 14161 14165 1
11333 14166 14167 1
11334 14166 14168 1
11335 14166 14169 1
11336 14166 14170 1
11337 14171 14172 1
11338 14171 14173 1
11339 14171 14174 1
11340 14171 14175 1
11341 14176 14177 1
11342 14176 14178 1
11343 14176 14179 1
11344 14176 14180 1
11345 14181 14182 1
11346 14181 14183 1
11347 14181 14184 1
11348 14181 14185 1
11349 14186 14187 1
11350 14186 14188 1
11351 14186 14189 1
11352 14186 14190 1
11353 14191 14192 1
11354 14191 14193 1
11355 14191 14194 1
11356 14191 14195 1
11357 14196 14197 1
11358 14196 14198 1
11359 14196 14199 1
11360 14196 14200 1
11361 14201 14202 1
11362 14201 14203 1
11363 14201 14204 1
11364 14201 14205 1
11365 14206 14207 1
11366 14206 14208 1
11367 14206 14209 1
11368 14206 14210 1
11369 14211 14212 1
11370 14211 14213 1
11371 14211 14214 1
11372 14211 14215 1
11373 14216 14217 1
11374 14216 14218 1
11375 14216 14219 1
11376 14216 14220 1
11377 14221 14222 1
11378 14221 14223 1
11379 14221 14224 1
11380 14221 14225 1
11381 14226 14227 1
11382 14226 14228 1
11383 14226 14229 1
11384 14226 14230 1
11385 14231 14234 1
11386 14231 14232 1
11387 14231 14233 1
11388 14231 14235 1
11389 14236 14237 1
11390 14236 14238 1
11391 14236 14239 1
11392 14236 14240 1
11393 14241 14242 1
11394 14241 14243 1
11395 14241 14244 1
11396 14241 14245 1
11397 14246 14247 1
11398 14246 14248 1
11399 14246 14249 1
11400 14246 14250 1
11401 14251 14252 1
11402 14251 14253 1
11403 14251 14254 1
11404 14251 14255 1
11405 14256 14259 1
11406 14256 14260 1
11407 14256 14257 1
11408 14256 14258 1
11409 14261 14262 1
11410 14261 14263 1
11411 14261 14264 1
11412 14261 14265 1
11413 14266 14267 1
11414 14266 14268 1
11415 14266 14269 1
11416 14266 14270 1
11417 14271 14272 1
11418 14271 14273 1
11419 14271 14274 1
11420 14271 14275 1
11421 14276 14277 1
11422 14276 14278 1
11423 14276 14279 1
11424 14276 14280 1
11425 14281 14282 1
11426 14281 14283 1
11427 14281 14284 1
11428 14281 14285 1
11429 14286 14287 1
11430 14286 14288 1
11431 14286 14289 1
11432 14286 14290 1
11433 14291 14292 1
11434 14291 14293 1
11435 14291 14294 1
11436 14291 14295 1
11437 14296 14297 1
11438 14296 14298 1
11439 14296 14299 1
11440 14296 14300 1
11441 14301 14302 1
11442 14301 14303 1
11443 14301 14304 1
11444 14301 14305 1
11445 14306 14307 1
11446 14306 14308 1
11447 14306 14309 1
11448 14306 14310 1
11449 14311 14312 1
11450 14311 14313 1
11451 14311 14314 1
11452 14311 14315 1
11453 14316 14317 1
11454 14316 14318 1
11455 14316 14319 1
11456 14316 14320 1
11457 14321 14322 1
11458 14321 14323 1
11459 14321 14324 1
11460 14321 14325 1
11461 14326 14327 1
11462 14326 14328 1
11463 14326 14329 1
11464 14326 14330 1
11465 14331 14332 1
11466 14331 14333 1
11467 14331 14334 1
11468 14331 14335 1
11469 14336 14337 1
11470 14336 14338 1
11471 14336 14339 1
11472 14336 14340 1
11473 14341 14342 1
11474 14341 14343 1
11475 14341 14344 1
11476 14341 14345 1
11477 14346 14347 1
11478 14346 14348 1
11479 14346 14349 1
11480 14346 14350 1
11481 14351 14352 1
11482 14351 14353 1
11483 14351 14354 1
11484 14351 14355 1
11485 14356 14357 1
11486 14356 14358 1
11487 14356 14359 1
11488 14356 14360 1
11489 14361 14362 1
11490 14361 14363 1
11491 14361 14364 1
11492 14361 14365 1
11493 14366 14367 1
11494 14366 14368 1
11495 14366 14369 1
11496 14366 14370 1
11497 14371 14372 1
11498 14371 14373 1
11499 14371 14374 1
11500 14371 14375 1
11501 14376 14377 1
11502 14376 14378 1
11503 14376 14379 1
11504 14376 14380 1
11505 14381 14382 1
11506 14381 14383 1
11507 14381 14384 1
11508 14381 14385 1
11509 14386 14387 1
11510 14386 14388 1
11511 14386 14389 1
11512 14386 14390 1
11513 14391 14392 1
11514 14391 14393 1
11515 14391 14394 1
11516 14391 14395 1
11517 14396 14397 1
11518 14396 14398 1
11519 14396 14399 1
11520 14396 14400 1
11521 14401 14402 1
11522 14401 14403 1
11523 14401 14404 1
11524 14401 14405 1
11525 14406 14407 1
11526 14406 14408 1
11527 14406 14409 1
11528 14406 14410 1
11529 14411 14412 1
11530 14411 14413 1
11531 14411 14414 1
11532 14411 14415 1
11533 14416 14417 1
11534 14416 14418 1
11535 14416 14419 1
11536 14416 14420 1
11537 14421 14422 1
11538 14421 14423 1
11539 14421 14424 1
11540 14421 14425 1
11541 14426 14427 1
11542 14426 14428 1
11543 14426 14429 1
11544 14426 14430 1
11545 14431 14432 1
11546 14431 14433 1
11547 14431 14434 1
11548 14431 14435 1
11549 14436 14437 1
11550 14436 14438 1
11551 14436 14439 1
11552 14436 14440 1
11553 14441 14442 1
11554 14441 14443 1
11555 14441 14444 1
11556 14441 14445 1
11557 14446 14447 1
11558 14446 14448 1
11559 14446 14449 1
11560 14446 14450 1
11561 14451 14452 1
11562 14451 14453 1
11563 14451 14454 1
11564 14451 14455 1
11565 14456 14457 1
11566 14456 14458 1
11567 14456 14459 1
11568 14456 14460 1
11569 14461 14462 1
11570 14461 14463 1
11571 14461 14464 1
11572 14461 14465 1
11573 14466 14467 1
11574 14466 14468 1
11575 14466 14469 1
11576 14466 14470 1
11577 14471 14472 1
11578 14471 14473 1
11579 14471 14474 1
11580 14471 14475 1
11581 14476 14477 1
11582 14476 14478 1
11583 14476 14479 1
11584 14476 14480 1
11585 14481 14482 1
11586 14481 14483 1
11587 14481 14484 1
11588 14481 14485 1
11589 14486 14487 1
11590 14486 14488 1
11591 14486 14489 1
11592 14486 14490 1
11593 14491 14492 1
11594 14491 14493 1
11595 14491 14494 1
11596 14491 14495 1
11597 14496 14497 1
11598 14496 14498 1
11599 14496 14499 1
11600 14496 14500 1
11601 14501 14502 1
11602 14501 14503 1
11603 14501 14504 1
11604 14501 14505 1
11605 14506 14507 1
11606 14506 14508 1
11607 14506 14509 1
11608 14506 14510 1
11609 14511 14512 1
11610 14511 14513 1
11611 14511 14514 1
11612 14511 14515 1
11613 14516 14517 1
11614 14516 14518 1
11615 14516 14519 1
11616 14516 14520 1
11617 14521 14522 1
11618 14521 14523 1
11619 14521 14524 1
11620 14521 14525 1
11621 14526 14527 1
11622 14526 14528 1
11623 14526 14529 1
11624 14526 14530 1
11625 14531 14532 1
11626 14531 14533 1
11627 14531 14534 1
11628 14531 14535 1
11629 14536 14537 1
11630 14536 14538 1
11631 14536 14539 1
11632 14536 14540 1
11633 14541 14542 1
11634 14541 14543 1
11635 14541 14544 1
11636 14541 14545 1
11637 14546 14547 1
11638 14546 14548 1
11639 14546 14549 1
11640 14546 14550 1
11641 14551 14552 1
11642 14551 14553 1
11643 14551 14554 1
11644 14551 14555 1
11645 14556 14557 1
11646 14556 14558 1
11647 14556 14559 1
11648 14556 14560 1
11649 14561 14562 1
11650 14561 14563 1
11651 14561 14564 1
11652 14561 14565 1
11653 14566 14567 1
11654 14566 14568 1
11655 14566 14569 1
11656 14566 14570 1
11657 14571 14572 1
11658 14571 14573 1
11659 14571 14574 1
11660 14571 14575 1
11661 14576 14577 1
11662 14576 14578 1
11663 14576 14579 1
11664 14576 14580 1
11665 14581 14582 1
11666 14581 14583 1
11667 14581 14584 1
11668 14581 14585 1
11669 14586 14587 1
11670 14586 14588 1
11671 14586 14589 1
11672 14586 14590 1
11673 14591 14595 1
11674 14591 14592 1
11675 14591 14593 1
11676 14591 14594 1
11677 14596 14597 1
11678 14596 14598 1
11679 14596 14599 1
11680 14596 14600 1
11681 14601 14602 1
11682 14601 14603 1
11683 14601 14604 1
11684 14601 14605 1
11685 14606 14607 1
11686 14606 14608 1
11687 14606 14609 1
11688 14606 14610 1
11689 14611 14612 1
11690 14611 14613 1
11691 14611 14614 1
11692 14611 14615 1
11693 14616 14617 1
11694 14616 14618 1
11695 14616 14619 1
11696 14616 14620 1
11697 14621 14622 1
11698 14621 14623 1
11699 14621 14624 1
11700 14621 14625 1
11701 14626 14627 1
11702 14626 14628 1
11703 14626 14629 1
11704 14626 14630 1
11705 14631 14632 1
11706 14631 14633 1
11707 14631 14634 1
11708 14631 14635 1
11709 14636 14637 1
11710 14636 14638 1
11711 14636 14639 1
11712 14636 14640 1
11713 14641 14642 1
11714 14641 14643 1
11715 14641 14644 1
11716 14641 14645 1
11717 14646 14647 1
11718 14646 14648 1
11719 14646 14649 1
11720 14646 14650 1
11721 14651 14652 1
11722 14651 14653 1
11723 14651 14654 1
11724 14651 14655 1
11725 14656 14657 1
11726 14656 14658 1
11727 14656 14659 1
11728 14656 14660 1
11729 14661 14662 1
11730 14661 14663 1
11731 14661 14664 1
11732 14661 14665 1
11733 14666 14667 1
11734 14666 14668 1
11735 14666 14669 1
11736 14666 14670 1
11737 14671 14672 1
11738 14671 14673 1
11739 14671 14674 1
11740 14671 14675 1
11741 14676 14677 1
11742 14676 14678 1
11743 14676 14679 1
11744 14676 14680 1
11745 14681 14682 1
11746 14681 14683 1
11747 14681 14684 1
11748 14681 14685 1
11749 14686 14687 1
11750 14686 14688 1
11751 14686 14689 1
11752 14686 14690 1
11753 14691 14692 1
11754 14691 14693 1
11755 14691 14694 1
11756 14691 14695 1
11757 14696 14697 1
11758 14696 14698 1
11759 14696 14699 1
11760 14696 14700 1
11761 14701 14702 1
11762 14701 14703 1
11763 14701 14704 1
11764 14701 14705 1
11765 14706 14707 1
11766 14706 14708 1
11767 14706 14709 1
11768 14706 14710 1
11769 14711 14712 1
11770 14711 14713 1
11771 14711 14714 1
11772 14711 14715 1
11773 14716 14717 1
11774 14716 14718 1
11775 14716 14719 1
11776 14716 14720 1
11777 14721 14722 1
11778 14721 14723 1
11779 14721 14724 1
11780 14721 14725 1
11781 14726 14727 1
11782 14726 14728 1
11783 14726 14729 1
11784 14726 14730 1
11785 14731 14732 1
11786 14731 14733 1
11787 14731 14734 1
11788 14731 14735 1
11789 14736 14737 1
11790 14736 14738 1
11791 14736 14739 1
11792 14736 14740 1
11793 14741 14742 1
11794 14741 14743 1
11795 14741 14744 1
11796 14741 14745 1
11797 14746 14747 1
11798 14746 14748 1
11799 14746 14749 1
11800 14746 14750 1
11801 14751 14752 1
11802 14751 14753 1
11803 14751 14754 1
11804 14751 14755 1
11805 14756 14757 1
11806 14756 14758 1
11807 14756 14759 1
11808 14756 14760 1
11809 14761 14763 1
11810 14761 14764 1
11811 14761 14765 1
11812 14761 14762 1
11813 14766 14767 1
11814 14766 14768 1
11815 14766 14769 1
11816 14766 14770 1
11817 14771 14772 1
11818 14771 14773 1
11819 14771 14774 1
11820 14771 14775 1
11821 14776 14777 1
11822 14776 14778 1
11823 14776 14779 1
11824 14776 14780 1
11825 14781 14782 1
11826 14781 14783 1
11827 14781 14784 1
11828 14781 14785 1
11829 14786 14787 1
11830 14786 14788 1
11831 14786 14789 1
11832 14786 14790 1
11833 14791 14792 1
11834 14791 14793 1
11835 14791 14794 1
11836 14791 14795 1
11837 14796 14797 1
11838 14796 14798 1
11839 14796 14799 1
11840 14796 14800 1
11841 14801 14805 1
11842 14801 14802 1
11843 14801 14803 1
11844 14801 14804 1
11845 14806 14807 1
11846 14806 14808 1
11847 14806 14809 1
11848 14806 14810 1
11849 14811 14812 1
11850 14811 14813 1
11851 14811 14814 1
11852 14811 14815 1
11853 14816 14817 1
11854 14816 14818 1
11855 14816 14819 1
11856 14816 14820 1
11857 14821 14822 1
11858 14821 14823 1
11859 14821 14824 1
11860 14821 14825 1
11861 14826 14827 1
11862 14826 14828 1
11863 14826 14829 1
11864 14826 14830 1
11865 14831 14832 1
11866 14831 14833 1
11867 14831 14834 1
11868 14831 14835 1
11869 14836 14837 1
11870 14836 14838 1
11871 14836 14839 1
11872 14836 14840 1
11873 14841 14842 1
11874 14841 14843 1
11875 14841 14844 1
11876 14841 14845 1
11877 14846 14847 1
11878 14846 14848 1
11879 14846 14849 1
11880 14846 14850 1
11881 14851 14852 1
11882 14851 14853 1
11883 14851 14854 1
11884 14851 14855 1
11885 14856 14857 1
11886 14856 14858 1
11887 14856 14859 1
11888 14856 14860 1
11889 14861 14862 1
11890 14861 14863 1
11891 14861 14864 1
11892 14861 14865 1
11893 14866 14867 1
11894 14866 14868 1
11895 14866 14869 1
11896 14866 14870 1
11897 14871 14872 1
11898 14871 14873 1
11899 14871 14874 1
11900 14871 14875 1
11901 14876 14877 1
11902 14876 14878 1
11903 14876 14879 1
11904 14876 14880 1
11905 14881 14882 1
11906 14881 14883 1
11907 14881 14884 1
11908 14881 14885 1
11909 14886 14887 1
11910 14886 14888 1
11911 14886 14889 1
11912 14886 14890 1
11913 14891 14892 1
11914 14891 14893 1
11915 14891 14894 1
11916 14891 14895 1
11917 14896 14897 1
11918 14896 14898 1
11919 14896 14899 1
11920 14896 14900 1
11921 14901 14902 1
11922 14901 14903 1
11923 14901 14904 1
11924 14901 14905 1
11925 14906 14907 1
11926 14906 14908 1
11927 14906 14909 1
11928 14906 14910 1
11929 14911 14912 1
11930 14911 14913 1
11931 14911 14914 1
11932 14911 14915 1
11933 14916 14917 1
11934 14916 14918 1
11935 14916 14919 1
11936 14916 14920 1
11937 14921 14922 1
11938 14921 14923 1
11939 14921 14924 1
11940 14921 14925 1
11941 14926 14928 1
11942 14926 14927 1
11943 14926 14929 1
11944 14926 14930 1
11945 14931 14932 1
11946 14931 14933 1
11947 14931 14934 1
11948 14931 14935 1
11949 14936 14937 1
11950 14936 14938 1
11951 14936 14939 1
11952 14936 14940 1
11953 14941 14942 1
11954 14941 14943 1
11955 14941 14944 1
11956 14941 14945 1
11957 14946 14947 1
11958 14946 14948 1
11959 14946 14949 1
11960 14946 14950 1
11961 14951 14952 1
11962 14951 14953 1
11963 14951 14954 1
11964 14951 14955 1
11965 14956 14957 1
11966 14956 14958 1
11967 14956 14959 1
11968 14956 14960 1
11969 14961 14962 1
11970 14961 14963 1
11971 14961 14964 1
11972 14961 14965 1
11973 14966 14967 1
11974 14966 14968 1
11975 14966 14969 1
11976 14966 14970 1
11977 14971 14972 1
11978 14971 14973 1
11979 14971 14974 1
11980 14971 14975 1
11981 14976 14977 1
11982 14976 14978 1
11983 14976 14979 1
11984 14976 14980 1
11985 14981 14982 1
11986 14981 14983 1
11987 14981 14984 1
11988 14981 14985 1
11989 14986 14987 1
11990 14986 14988 1
11991 14986 14989 1
11992 14986 14990 1
11993 14991 14992 1
11994 14991 14993 1
11995 14991 14994 1
11996 14991 14995 1
11997 14996 14997 1
11998 14996 14998 1
11999 14996 14999 1
12000 14996 15000 1
12001 15001 15002 1
12002 15001 15003 1
12003 15001 15004 1
12004 15001 15005 1
12005 15006 15007 1
12006 15006 15008 1
12007 15006 15009 1
12008 15006 15010 1
12009 15011 15015 1
12010 15011 15012 1
12011 15011 15013 1
12012 15011 15014 1
12013 15016 15017 1
12014 15016 15018 1
12015 15016 15019 1
12016 15016 15020 1
12017 15021 15022 1
12018 15021 15023 1
12019 15021 15024 1
12020 15021 15025 1
12021 15026 15027 1
12022 15026 15028 1
12023 15026 15029 1
12024 15026 15030 1
12025 15031 15032 1
12026 15031 15033 1
12027 15031 15034 1
12028 15031 15035 1
12029 15036 15037 1
12030 15036 15038 1
12031 15036 15039 1
12032 15036 15040 1
12033 15041 15042 1
12034 15041 15043 1
12035 15041 15044 1
12036 15041 15045 1
12037 15046 15047 1
12038 15046 15048 1
12039 15046 15049 1
12040 15046 15050 1
12041 15051 15052 1
12042 15051 15053 1
12043 15051 15054 1
12044 15051 15055 1
12045 15056 15057 1
12046 15056 15058 1
12047 15056 15059 1
12048 15056 15060 1
12049 15061 15062 1
12050 15061 15063 1
12051 15061 15064 1
12052 15061 15065 1
12053 15066 15067 1
12054 15066 15068 1
12055 15066 15069 1
12056 15066 15070 1
12057 15071 15072 1
12058 15071 15073 1
12059 15071 15074 1
12060 15071 15075 1
12061 15076 15077 1
12062 15076 15078 1
12063 15076 15079 1
12064 15076 15080 1
12065 15081 15082 1
12066 15081 15083 1
12067 15081 15084 1
12068 15081 15085 1
12069 15086 15087 1
12070 15086 15088 1
12071 15086 15089 1
12072 15086 15090 1
12073 15091 15092 1
12074 15091 15093 1
12075 15091 15094 1
12076 15091 15095 1
12077 15096 15099 1
12078 15096 15100 1
12079 15096 15097 1
12080 15096 15098 1
12081 15101 15102 1
12082 15101 15103 1
12083 15101 15104 1
12084 15101 15105 1
12085 15106 15107 1
12086 15106 15108 1
12087 15106 15109 1
12088 15106 15110 1
12089 15111 15112 1
12090 15111 15113 1
12091 15111 15114 1
12092 15111 15115 1
12093 15116 15117 1
12094 15116 15118 1
12095 15116 15119 1
12096 15116 15120 1
12097 15121 15122 1
12098 15121 15123 1
12099 15121 15124 1
12100 15121 15125 1
12101 15126 15127 1
12102 15126 15128 1
12103 15126 15129 1
12104 15126 15130 1
12105 15131 15132 1
12106 15131 15133 1
12107 15131 15134 1
12108 15131 15135 1
12109 15136 15137 1
12110 15136 15138 1
12111 15136 15139 1
12112 15136 15140 1
12113 15141 15142 1
12114 15141 15143 1
12115 15141 15144 1
12116 15141 15145 1
12117 15146 15147 1
12118 15146 15148 1
12119 15146 15149 1
12120 15146 15150 1
12121 15151 15152 1
12122 15151 15153 1
12123 15151 15154 1
12124 15151 15155 1
12125 15156 15157 1
12126 15156 15158 1
12127 15156 15159 1
12128 15156 15160 1
12129 15161 15162 1
12130 15161 15163 1
12131 15161 15164 1
12132 15161 15165 1
12133 15166 15167 1
12134 15166 15168 1
12135 15166 15169 1
12136 15166 15170 1
12137 15171 15172 1
12138 15171 15173 1
12139 15171 15174 1
12140 15171 15175 1
12141 15176 15177 1
12142 15176 15178 1
12143 15176 15179 1
12144 15176 15180 1
12145 15181 15182 1
12146 15181 15183 1
12147 15181 15184 1
12148 15181 15185 1
12149 15186 15187 1
12150 15186 15188 1
12151 15186 15189 1
12152 15186 15190 1
12153 15191 15192 1
12154 15191 15193 1
12155 15191 15194 1
12156 15191 15195 1
12157 15196 15197 1
12158 15196 15198 1
12159 15196 15199 1
12160 15196 15200 1
12161 15201 15202 1
12162 15201 15203 1
12163 15201 15204 1
12164 15201 15205 1
12165 15206 15207 1
12166 15206 15208 1
12167 15206 15209 1
12168 15206 15210 1
12169 15211 15212 1
12170 15211 15213 1
12171 15211 15214 1
12172 15211 15215 1
12173 15216 15217 1
12174 15216 15218 1
12175 15216 15219 1
12176 15216 15220 1
12177 15221 15222 1
12178 15221 15223 1
12179 15221 15224 1
12180 15221 15225 1
12181 15226 15227 1
12182 15226 15228 1
12183 15226 15229 1
12184 15226 15230 1
12185 15231 15232 1
12186 15231 15233 1
12187 15231 15234 1
12188 15231 15235 1
12189 15236 15237 1
12190 15236 15238 1
12191 15236 15239 1
12192 15236 15240 1
12193 15241 15242 1
12194 15241 15243 1
12195 15241 15244 1
12196 15241 15245 1
12197 15246 15247 1
12198 15246 15248 1
12199 15246 15249 1
12200 15246 15250 1
12201 15251 15252 1
12202 15251 15253 1
12203 15251 15254 1
12204 15251 15255 1
12205 15256 15257 1
12206 15256 15258 1
12207 15256 15259 1
12208 15256 15260 1
12209 15261 15262 1
12210 15261 15263 1
12211 15261 15264 1
12212 15261 15265 1
12213 15266 15267 1
12214 15266 15268 1
12215 15266 15269 1
12216 15266 15270 1
12217 15271 15272 1
12218 15271 15273 1
12219 15271 15274 1
12220 15271 15275 1
12221 15276 15277 1
12222 15276 15278 1
12223 15276 15279 1
12224 15276 15280 1
12225 15281 15282 1
12226 15281 15283 1
12227 15281 15284 1
12228 15281 15285 1
12229 15286 15287 1
12230 15286 15288 1
12231 15286 15289 1
12232 15286 15290 1
12233 15291 15292 1
12234 15291 15293 1
12235 15291 15294 1
12236 15291 15295 1
12237 15296 15297 1
12238 15296 15298 1
12239 15296 15299 1
12240 15296 15300 1
12241 15301 15302 1
12242 15301 15303 1
12243 15301 15304 1
12244 15301 15305 1
12245 15306 15307 1
12246 15306 15308 1
12247 15306 15309 1
12248 15306 15310 1
12249 15311 15312 1
12250 15311 15313 1
12251 15311 15314 1
12252 15311 15315 1
12253 15316 15317 1
12254 15316 15318 1
12255 15316 15319 1
12256 15316 15320 1
12257 15321 15322 1
12258 15321 15323 1
12259 15321 15324 1
12260 15321 15325 1
12261 15326 15327 1
12262 15326 15328 1
12263 15326 15329 1
12264 15326 15330 1
12265 15331 15332 1
12266 15331 15333 1
12267 15331 15334 1
12268 15331 15335 1
12269 15336 15337 1
12270 15336 15338 1
12271 15336 15339 1
12272 15336 15340 1
12273 15341 15342 1
12274 15341 15343 1
12275 15341 15344 1
12276 15341 15345 1
12277 15346 15347 1
12278 15346 15348 1
12279 15346 15349 1
12280 15346 15350 1
12281 15351 15352 1
12282 15351 15353 1
12283 15351 15354 1
12284 15351 15355 1
12285 15356 15357 1
12286 15356 15358 1
12287 15356 15359 1
12288 15356 15360 1
12289 15361 15362 1
12290 15361 15363 1
12291 15361 15364 1
12292 15361 15365 1
12293 15366 15367 1
12294 15366 15368 1
12295 15366 15369 1
12296 15366 15370 1
12297 15371 15372 1
12298 15371 15373 1
12299 15371 15374 1
12300 15371 15375 1
12301 15376 15377 1
12302 15376 15378 1
12303 15376 15379 1
12304 15376 15380 1
12305 15381 15382 1
12306 15381 15383 1
12307 15381 15384 1
12308 15381 15385 1
12309 15386 15387 1
12310 15386 15388 1
12311 15386 15389 1
12312 15386 15390 1
12313 15391 15393 1
12314 15391 15394 1
12315 15391 15395 1
12316 15391 15392 1
12317 15396 15397 1
12318 15396 15398 1
12319 15396 15399 1
12320 15396 15400 1
12321 15401 15402 1
12322 15401 15403 1
12323 15401 15404 1
12324 15401 15405 1
12325 15406 15407 1
12326 15406 15408 1
12327 15406 15409 1
12328 15406 15410 1
12329 15411 15412 1
12330 15411 15413 1
12331 15411 15414 1
12332 15411 15415 1
12333 15416 15417 1
12334 15416 15418 1
12335 15416 15419 1
12336 15416 15420 1
12337 15421 15422 1
12338 15421 15423 1
12339 15421 15424 1
12340 15421 15425 1
12341 15426 15427 1
12342 15426 15428 1
12343 15426 15429 1
12344 15426 15430 1
12345 15431 15435 1
12346 15431 15432 1
12347 15431 15433 1
12348 15431 15434 1
12349 15436 15437 1
12350 15436 15438 1
12351 15436 15439 1
12352 15436 15440 1
12353 15441 15442 1
12354 15441 15443 1
12355 15441 15444 1
12356 15441 15445 1
12357 15446 15447 1
12358 15446 15448 1
12359 15446 15449 1
12360 15446 15450 1
12361 15451 15452 1
12362 15451 15453 1
12363 15451 15454 1
12364 15451 15455 1
12365 15456 15457 1
12366 15456 15458 1
12367 15456 15459 1
12368 15456 15460 1
12369 15461 15462 1
12370 15461 15463 1
12371 15461 15464 1
12372 15461 15465 1
12373 15466 15467 1
12374 15466 15468 1
12375 15466 15469 1
12376 15466 15470 1
12377 15471 15472 1
12378 15471 15473 1
12379 15471 15474 1
12380 15471 15475 1
12381 15476 15477 1
12382 15476 15478 1
12383 15476 15479 1
12384 15476 15480 1
12385 15481 15482 1
12386 15481 15483 1
12387 15481 15484 1
12388 15481 15485 1
12389 15486 15487 1
12390 15486 15488 1
12391 15486 15489 1
12392 15486 15490 1
12393 15491 15492 1
12394 15491 15493 1
12395 15491 15494 1
12396 15491 15495 1
12397 15496 15497 1
12398 15496 15498 1
12399 15496 15499 1
12400 15496 15500 1
12401 15501 15502 1
12402 15501 15503 1
12403 15501 15504 1
12404 15501 15505 1
12405 15506 15507 1
12406 15506 15508 1
12407 15506 15509 1
12408 15506 15510 1
12409 15511 15512 1
12410 15511 15513 1
12411 15511 15514 1
12412 15511 15515 1
12413 15516 15519 1
12414 15516 15520 1
12415 15516 15517 1
12416 15516 15518 1
12417 15521 15522 1
12418 15521 15523 1
12419 15521 15524 1
12420 15521 15525 1
12421 15526 15527 1
12422 15526 15528 1
12423 15526 15529 1
12424 15526 15530 1
12425 15531 15532 1
12426 15531 15533 1
12427 15531 15534 1
12428 15531 15535 1
12429 15536 15537 1
12430 15536 15538 1
12431 15536 15539 1
12432 15536 15540 1
12433 15541 15542 1
12434 15541 15543 1
12435 15541 15544 1
12436 15541 15545 1
12437 15546 15547 1
12438 15546 15548 1
12439 15546 15549 1
12440 15546 15550 1
12441 15551 15552 1
12442 15551 15553 1
12443 15551 15554 1
12444 15551 15555 1
12445 15556 15557 1
12446 15556 15558 1
12447 15556 15559 1
12448 15556 15560 1
12449 15561 15562 1
12450 15561 15563 1
12451 15561 15564 1
12452 15561 15565 1
12453 15566 15567 1
12454 15566 15568 1
12455 15566 15569 1
12456 15566 15570 1
12457 15571 15572 1
12458 15571 15573 1
12459 15571 15574 1
12460 15571 15575 1
12461 15576 15577 1
12462 15576 15578 1
12463 15576 15579 1
12464 15576 15580 1
12465 15581 15582 1
12466 15581 15583 1
12467 15581 15584 1
12468 15581 15585 1
12469 15586 15587 1
12470 15586 15588 1
12471 15586 15589 1
12472 15586 15590 1
12473 15591 15592 1
12474 15591 15593 1
12475 15591 15594 1
12476 15591 15595 1
12477 15596 15597 1
12478 15596 15598 1
12479 15596 15599 1
12480 15596 15600 1
12481 15601 15603 1
12482 15601 15604 1
12483 15601 15605 1
12484 15601 15602 1
12485 15606 15607 1
12486 15606 15608 1
12487 15606 15609 1
12488 15606 15610 1
12489 15611 15612 1
12490 15611 15613 1
12491 15611 15614 1
12492 15611 15615 1
12493 15616 15617 1
12494 15616 15618 1
12495 15616 15619 1
12496 15616 15620 1
12497 15621 15622 1
12498 15621 15623 1
12499 15621 15624 1
12500 15621 15625 1
12501 15626 15627 1
12502 15626 15628 1
12503 15626 15629 1
12504 15626 15630 1
12505 15631 15632 1
12506 15631 15633 1
12507 15631 15634 1
12508 15631 15635 1
12509 15636 15637 1
12510 15636 15638 1
12511 15636 15639 1
12512 15636 15640 1
12513 15641 15642 1
12514 15641 15643 1
12515 15641 15644 1
12516 15641 15645 1
12517 15646 15647 1
12518 15646 15648 1
12519 15646 15649 1
12520 15646 15650 1
12521 15651 15652 1
12522 15651 15653 1
12523 15651 15654 1
12524 15651 15655 1
12525 15656 15657 1
12526 15656 15658 1
12527 15656 15659 1
12528 15656 15660 1
12529 15661 15662 1
12530 15661 15663 1
12531 15661 15664 1
12532 15661 15665 1
12533 15666 15667 1
12534 15666 15668 1
12535 15666 15669 1
12536 15666 15670 1
12537 15671 15672 1
12538 15671 15673 1
12539 15671 15674 1
12540 15671 15675 1
12541 15676 15677 1
12542 15676 15678 1
12543 15676 15679 1
12544 15676 15680 1
12545 15681 15682 1
12546 15681 15683 1
12547 15681 15684 1
12548 15681 15685 1
12549 15686 15687 1
12550 15686 15688 1
12551 15686 15689 1
12552 15686 15690 1
12553 15691 15692 1
12554 15691 15693 1
12555 15691 15694 1
12556 15691 15695 1
12557 15696 15697 1
12558 15696 15698 1
12559 15696 15699 1
12560 15696 15700 1
12561 15701 15702 1
12562 15701 15703 1
12563 15701 15704 1
12564 15701 15705 1
12565 15706 15707 1
12566 15706 15708 1
12567 15706 15709 1
12568 15706 15710 1
12569 15711 15712 1
12570 15711 15713 1
12571 15711 15714 1
12572 15711 15715 1
12573 15716 15717 1
12574 15716 15718 1
12575 15716 15719 1
12576 15716 15720 1
12577 15721 15722 1
12578 15721 15723 1
12579 15721 15724 1
12580 15721 15725 1
12581 15726 15727 1
12582 15726 15728 1
12583 15726 15729 1
12584 15726 15730 1
12585 15731 15732 1
12586 15731 15733 1
12587 15731 15734 1
12588 15731 15735 1
12589 15736 15737 1
12590 15736 15738 1
12591 15736 15739 1
12592 15736 15740 1
12593 15741 15742 1
12594 15741 15743 1
12595 15741 15744 1
12596 15741 15745 1
12597 15746 15747 1
12598 15746 15748 1
12599 15746 15749 1
12600 15746 15750 1
12601 15751 15752 1
12602 15751 15753 1
12603 15751 15754 1
12604 15751 15755 1
12605 15756 15757 1
12606 15756 15758 1
12607 15756 15759 1
12608 15756 15760 1
12609 15761 15762 1
12610 15761 15763 1
12611 15761 15764 1
12612 15761 15765 1
12613 15766 15768 1
12614 15766 15769 1
12615 15766 15770 1
12616 15766 15767 1
12617 15771 15772 1
12618 15771 15774 1
12619 15771 15773 1
12620 15771 15775 1
12621 15776 15777 1
12622 15776 15778 1
12623 15776 15779 1
12624 15776 15780 1
12625 15781 15782 1
12626 15781 15783 1
12627 15781 15784 1
12628 15781 15785 1
12629 15786 15787 1
12630 15786 15788 1
12631 15786 15789 1
12632 15786 15790 1
12633 15791 15792 1
12634 15791 15793 1
12635 15791 15794 1
12636 15791 15795 1
12637 15796 15797 1
12638 15796 15798 1
12639 15796 15799 1
12640 15796 15800 1
12641 15801 15802 1
12642 15801 15803 1
12643 15801 15804 1
12644 15801 15805 1
12645 15806 15807 1
12646 15806 15808 1
12647 15806 15809 1
12648 15806 15810 1
12649 15811 15812 1
12650 15811 15813 1
12651 15811 15814 1
12652 15811 15815 1
12653 15816 15817 1
12654 15816 15818 1
12655 15816 15819 1
12656 15816 15820 1
12657 15821 15822 1
12658 15821 15823 1
12659 15821 15824 1
12660 15821 15825 1
12661 15826 15827 1
12662 15826 15828 1
12663 15826 15829 1
12664 15826 15830 1
12665 15831 15832 1
12666 15831 15833 1
12667 15831 15834 1
12668 15831 15835 1
12669 15836 15837 1
12670 15836 15838 1
12671 15836 15839 1
12672 15836 15840 1
12673 15841 15842 1
12674 15841 15843 1
12675 15841 15844 1
12676 15841 15845 1
12677 15846 15847 1
12678 15846 15848 1
12679 15846 15849 1
12680 15846 15850 1
12681 15851 15855 1
12682 15851 15852 1
12683 15851 15853 1
12684 15851 15854 1
12685 15856 15857 1
12686 15856 15858 1
12687 15856 15859 1
12688 15856 15860 1
12689 15861 15862 1
12690 15861 15863 1
12691 15861 15864 1
12692 15861 15865 1
12693 15866 15867 1
12694 15866 15868 1
12695 15866 15869 1
12696 15866 15870 1
12697 15871 15872 1
12698 15871 15873 1
12699 15871 15874 1
12700 15871 15875 1
12701 15876 15877 1
12702 15876 15878 1
12703 15876 15879 1
12704 15876 15880 1
12705 15881 15882 1
12706 15881 15883 1
12707 15881 15884 1
12708 15881 15885 1
12709 15886 15887 1
12710 15886 15888 1
12711 15886 15889 1
12712 15886 15890 1
12713 15891 15892 1
12714 15891 15893 1
12715 15891 15894 1
12716 15891 15895 1
12717 15896 15897 1
12718 15896 15898 1
12719 15896 15899 1
12720 15896 15900 1
12721 15901 15902 1
12722 15901 15903 1
12723 15901 15904 1
12724 15901 15905 1
12725 15906 15907 1
12726 15906 15908 1
12727 15906 15909 1
12728 15906 15910 1
12729 15911 15912 1
12730 15911 15913 1
12731 15911 15914 1
12732 15911 15915 1
12733 15916 15917 1
12734 15916 15918 1
12735 15916 15919 1
12736 15916 15920 1
12737 15921 15922 1
12738 15921 15923 1
12739 15921 15924 1
12740 15921 15925 1
12741 15926 15927 1
12742 15926 15928 1
12743 15926 15929 1
12744 15926 15930 1
12745 15931 15932 1
12746 15931 15933 1
12747 15931 15934 1
12748 15931 15935 1
12749 15936 15939 1
12750 15936 15940 1
12751 15936 15937 1
12752 15936 15938 1
12753 15941 15942 1
12754 15941 15943 1
12755 15941 15944 1
12756 15941 15945 1
12757 15946 15947 1
12758 15946 15948 1
12759 15946 15949 1
12760 15946 15950 1
12761 15951 15952 1
12762 15951 15953 1
12763 15951 15954 1
12764 15951 15955 1
12765 15956 15957 1
12766 15956 15958 1
12767 15956 15959 1
12768 15956 15960 1
12769 15961 15962 1
12770 15961 15963 1
12771 15961 15964 1
12772 15961 15965 1
12773 15966 15967 1
12774 15966 15968 1
12775 15966 15969 1
12776 15966 15970 1
12777 15971 15972 1
12778 15971 15973 1
12779 15971 15974 1
12780 15971 15975 1
12781 15976 15977 1
12782 15976 15978 1
12783 15976 15979 1
12784 15976 15980 1
12785 15981 15982 1
12786 15981 15983 1
12787 15981 15984 1
12788 15981 15985 1
12789 15986 15987 1
12790 15986 15988 1
12791 15986 15989 1
12792 15986 15990 1
12793 15991 15992 1
12794 15991 15993 1
12795 15991 15994 1
12796 15991 15995 1
12797 15996 15997 1
12798 15996 15998 1
12799 15996 15999 1
12800 15996 16000 1
12801 16001 16002 1
12802 16001 16003 1
12803 16001 16004 1
12804 16001 16005 1
12805 16006 16007 1
12806 16006 16008 1
12807 16006 16009 1
12808 16006 16010 1
12809 16011 16012 1
12810 16011 16013 1
12811 16011 16014 1
12812 16011 16015 1
12813 16016 16017 1
12814 16016 16018 1
12815 16016 16019 1
12816 16016 16020 1
12817 16021 16023 1
12818 16021 16024 1
12819 16021 16025 1
12820 16021 16022 1
12821 16026 16027 1
12822 16026 16028 1
12823 16026 16029 1
12824 16026 16030 1
12825 16031 16032 1
12826 16031 16033 1
12827 16031 16034 1
12828 16031 16035 1
12829 16036 16037 1
12830 16036 16038 1
12831 16036 16039 1
12832 16036 16040 1
12833 16041 16042 1
12834 16041 16043 1
12835 16041 16044 1
12836 16041 16045 1
12837 16046 16047 1
12838 16046 16048 1
12839 16046 16049 1
12840 16046 16050 1
12841 16051 16052 1
12842 16051 16053 1
12843 16051 16054 1
12844 16051 16055 1
12845 16056 16057 1
12846 16056 16058 1
12847 16056 16059 1
12848 16056 16060 1
12849 16061 16062 1
12850 16061 16063 1
12851 16061 16064 1
12852 16061 16065 1
12853 16066 16067 1
12854 16066 16068 1
12855 16066 16069 1
12856 16066 16070 1
12857 16071 16072 1
12858 16071 16073 1
12859 16071 16074 1
12860 16071 16075 1
12861 16076 16077 1
12862 16076 16078 1
12863 16076 16079 1
12864 16076 16080 1
12865 16081 16082 1
12866 16081 16083 1
12867 16081 16084 1
12868 16081 16085 1
12869 16086 16087 1
12870 16086 16088 1
12871 16086 16089 1
12872 16086 16090 1
12873 16091 16092 1
12874 16091 16093 1
12875 16091 16094 1
12876 16091 16095 1
12877 16096 16097 1
12878 16096 16098 1
12879 16096 16099 1
12880 16096 16100 1
12881 16101 16102 1
12882 16101 16103 1
12883 16101 16104 1
12884 16101 16105 1
12885 16106 16107 1
12886 16106 16108 1
12887 16106 16109 1
12888 16106 16110 1
12889 16111 16112 1
12890 16111 16113 1
12891 16111 16114 1
12892 16111 16115 1
12893 16116 16117 1
12894 16116 16118 1
12895 16116 16119 1
12896 16116 16120 1
12897 16121 16122 1
12898 16121 16123 1
12899 16121 16124 1
12900 16121 16125 1
12901 16126 16127 1
12902 16126 16128 1
12903 16126 16129 1
12904 16126 16130 1
12905 16131 16132 1
12906 16131 16133 1
12907 16131 16134 1
12908 16131 16135 1
12909 16136 16137 1
12910 16136 16138 1
12911 16136 16139 1
12912 16136 16140 1
12913 16141 16142 1
12914 16141 16143 1
12915 16141 16144 1
12916 16141 16145 1
12917 16146 16147 1
12918 16146 16148 1
12919 16146 16149 1
12920 16146 16150 1
12921 16151 16152 1
12922 16151 16153 1
12923 16151 16154 1
12924 16151 16155 1
12925 16156 16157 1
12926 16156 16158 1
12927 16156 16159 1
12928 16156 16160 1
12929 16161 16162 1
12930 16161 16163 1
12931 16161 16164 1
12932 16161 16165 1
12933 16166 16167 1
12934 16166 16168 1
12935 16166 16169 1
12936 16166 16170 1
12937 16171 16172 1
12938 16171 16173 1
12939 16171 16174 1
12940 16171 16175 1
12941 16176 16177 1
12942 16176 16178 1
12943 16176 16179 1
12944 16176 16180 1
12945 16181 16182 1
12946 16181 16183 1
12947 16181 16184 1
12948 16181 16185 1
12949 16186 16187 1
12950 16186 16188 1
12951 16186 16189 1
12952 16186 16190 1
12953 16191 16192 1
12954 16191 16193 1
12955 16191 16194 1
12956 16191 16195 1
12957 16196 16197 1
12958 16196 16198 1
12959 16196 16199 1
12960 16196 16200 1
12961 16201 16202 1
12962 16201 16203 1
12963 16201 16204 1
12964 16201 16205 1
12965 16206 16207 1
12966 16206 16208 1
12967 16206 16209 1
12968 16206 16210 1
12969 16211 16212 1
12970 16211 16213 1
12971 16211 16214 1
12972 16211 16215 1
12973 16216 16217 1
12974 16216 16218 1
12975 16216 16219 1
12976 16216 16220 1
12977 16221 16222 1
12978 16221 16223 1
12979 16221 16224 1
12980 16221 16225 1
12981 16226 16227 1
12982 16226 16228 1
12983 16226 16229 1
12984 16226 16230 1
12985 16231 16232 1
12986 16231 16233 1
12987 16231 16234 1
12988 16231 16235 1
12989 16236 16237 1
12990 16236 16238 1
12991 16236 16239 1
12992 16236 16240 1
12993 16241 16242 1
12994 16241 16243 1
12995 16241 16244 1
12996 16241 16245 1
12997 16246 16247 1
12998 16246 16248 1
12999 16246 16249 1
13000 16246 16250 1
13001 16251 16252 1
13002 16251 16253 1
13003 16251 16254 1
13004 16251 16255 1
13005 16256 16257 1
13006 16256 16258 1
13007 16256 16259 1
13008 16256 16260 1
13009 16261 16262 1
13010 16261 16263 1
13011 16261 16264 1
13012 16261 16265 1
13013 16266 16267 1
13014 16266 16268 1
13015 16266 16269 1
13016 16266 16270 1
13017 16271 16275 1
13018 16271 16272 1
13019 16271 16273 1
13020 16271 16274 1
13021 16276 16277 1
13022 16276 16278 1
13023 16276 16279 1
13024 16276 16280 1
13025 16281 16282 1
13026 16281 16283 1
13027 16281 16284 1
13028 16281 16285 1
13029 16286 16287 1
13030 16286 16288 1
13031 16286 16289 1
13032 16286 16290 1
13033 16291 16292 1
13034 16291 16293 1
13035 16291 16294 1
13036 16291 16295 1
13037 16296 16297 1
13038 16296 16298 1
13039 16296 16299 1
13040 16296 16300 1
13041 16301 16302 1
13042 16301 16303 1
13043 16301 16304 1
13044 16301 16305 1
13045 16306 16307 1
13046 16306 16308 1
13047 16306 16309 1
13048 16306 16310 1
13049 16311 16312 1
13050 16311 16313 1
13051 16311 16314 1
13052 16311 16315 1
13053 16316 16317 1
13054 16316 16318 1
13055 16316 16319 1
13056 16316 16320 1
13057 16321 16322 1
13058 16321 16323 1
13059 16321 16324 1
13060 16321 16325 1
13061 16326 16327 1
13062 16326 16328 1
13063 16326 16329 1
13064 16326 16330 1
13065 16331 16332 1
13066 16331 16333 1
13067 16331 16334 1
13068 16331 16335 1
13069 16336 16337 1
13070 16336 16338 1
13071 16336 16339 1
13072 16336 16340 1
13073 16341 16342 1
13074 16341 16343 1
13075 16341 16344 1
13076 16341 16345 1
13077 16346 16347 1
13078 16346 16348 1
13079 16346 16349 1
13080 16346 16350 1
13081 16351 16352 1
13082 16351 16353 1
13083 16351 16354 1
13084 16351 16355 1
13085 16356 16357 1
13086 16356 16358 1
13087 16356 16359 1
13088 16356 16360 1
13089 16361 16362 1
13090 16361 16363 1
13091 16361 16364 1
13092 16361 16365 1
13093 16366 16367 1
13094 16366 16368 1
13095 16366 16369 1
13096 16366 16370 1
13097 16371 16372 1
13098 16371 16373 1
13099 16371 16374 1
13100 16371 16375 1
13101 16376 16377 1
13102 16376 16378 1
13103 16376 16379 1
13104 16376 16380 1
13105 16381 16382 1
13106 16381 16383 1
13107 16381 16384 1
13108 16381 16385 1
13109 16386 16387 1
13110 16386 16388 1
13111 16386 16389 1
13112 16386 16390 1
13113 16391 16392 1
13114 16391 16393 1
13115 16391 16394 1
13116 16391 16395 1
13117 16396 16397 1
13118 16396 16398 1
13119 16396 16399 1
13120 16396 16400 1
13121 16401 16402 1
13122 16401 16403 1
13123 16401 16404 1
13124 16401 16405 1
13125 16406 16407 1
13126 16406 16408 1
13127 16406 16409 1
13128 16406 16410 1
13129 16411 16412 1
13130 16411 16413 1
13131 16411 16414 1
13132 16411 16415 1
13133 16416 16417 1
13134 16416 16418 1
13135 16416 16419 1
13136 16416 16420 1
13137 16421 16422 1
13138 16421 16423 1
13139 16421 16424 1
13140 16421 16425 1
13141 16426 16427 1
13142 16426 16428 1
13143 16426 16429 1
13144 16426 16430 1
13145 16431 16432 1
13146 16431 16433 1
13147 16431 16434 1
13148 16431 16435 1
13149 16436 16437 1
13150 16436 16438 1
13151 16436 16439 1
13152 16436 16440 1
13153 16441 16443 1
13154 16441 16444 1
13155 16441 16445 1
13156 16441 16442 1
13157 16446 16447 1
13158 16446 16448 1
13159 16446 16449 1
13160 16446 16450 1
13161 16451 16452 1
13162 16451 16453 1
13163 16451 16454 1
13164 16451 16455 1
13165 16456 16457 1
13166 16456 16458 1
13167 16456 16459 1
13168 16456 16460 1
13169 16461 16462 1
13170 16461 16463 1
13171 16461 16464 1
13172 16461 16465 1
13173 16466 16467 1
13174 16466 16468 1
13175 16466 16469 1
13176 16466 16470 1
13177 16471 16472 1
13178 16471 16473 1
13179 16471 16474 1
13180 16471 16475 1
13181 16476 16477 1
13182 16476 16478 1
13183 16476 16479 1
13184 16476 16480 1
13185 16481 16482 1
13186 16481 16483 1
13187 16481 16484 1
13188 16481 16485 1
13189 16486 16487 1
13190 16486 16488 1
13191 16486 16489 1
13192 16486 16490 1
13193 16491 16492 1
13194 16491 16493 1
13195 16491 16494 1
13196 16491 16495 1
13197 16496 16497 1
13198 16496 16498 1
13199 16496 16499 1
13200 16496 16500 1
13201 16501 16502 1
13202 16501 16503 1
13203 16501 16504 1
13204 16501 16505 1
13205 16506 16507 1
13206 16506 16508 1
13207 16506 16509 1
13208 16506 16510 1
13209 16511 16512 1
13210 16511 16513 1
13211 16511 16514 1
13212 16511 16515 1
13213 16516 16517 1
13214 16516 16518 1
13215 16516 16519 1
13216 16516 16520 1
13217 16521 16522 1
13218 16521 16523 1
13219 16521 16524 1
13220 16521 16525 1
13221 16526 16527 1
13222 16526 16528 1
13223 16526 16529 1
13224 16526 16530 1
13225 16531 16532 1
13226 16531 16533 1
13227 16531 16534 1
13228 16531 16535 1
13229 16536 16537 1
13230 16536 16538 1
13231 16536 16539 1
13232 16536 16540 1
13233 16541 16542 1
13234 16541 16543 1
13235 16541 16544 1
13236 16541 16545 1
13237 16546 16547 1
13238 16546 16548 1
13239 16546 16549 1
13240 16546 16550 1
13241 16551 16552 1
13242 16551 16553 1
13243 16551 16554 1
13244 16551 16555 1
13245 16556 16557 1
13246 16556 16558 1
13247 16556 16559 1
13248 16556 16560 1
13249 16561 16562 1
13250 16561 16563 1
13251 16561 16564 1
13252 16561 16565 1
13253 16566 16567 1
13254 16566 16568 1
13255 16566 16569 1
13256 16566 16570 1
13257 16571 16572 1
13258 16571 16573 1
13259 16571 16574 1
13260 16571 16575 1
13261 16576 16577 1
13262 16576 16578 1
13263 16576 16579 1
13264 16576 16580 1
13265 16581 16582 1
13266 16581 16583 1
13267 16581 16584 1
13268 16581 16585 1
13269 16586 16587 1
13270 16586 16588 1
13271 16586 16589 1
13272 16586 16590 1
13273 16591 16592 1
13274 16591 16593 1
13275 16591 16594 1
13276 16591 16595 1
13277 16596 16597 1
13278 16596 16598 1
13279 16596 16599 1
13280 16596 16600 1
13281 16601 16602 1
13282 16601 16603 1
13283 16601 16604 1
13284 16601 16605 1
13285 16606 16607 1
13286 16606 16608 1
13287 16606 16609 1
13288 16606 16610 1
13289 16611 16612 1
13290 16611 16613 1
13291 16611 16614 1
13292 16611 16615 1
13293 16616 16617 1
13294 16616 16618 1
13295 16616 16619 1
13296 16616 16620 1
13297 16621 16622 1
13298 16621 16623 1
13299 16621 16624 1
13300 16621 16625 1
13301 16626 16627 1
13302 16626 16628 1
13303 16626 16629 1
13304 16626 16630 1
13305 16631 16632 1
13306 16631 16633 1
13307 16631 16634 1
13308 16631 16635 1
13309 16636 16637 1
13310 16636 16638 1
13311 16636 16639 1
13312 16636 16640 1
13313 16641 16642 1
13314 16641 16643 1
13315 16641 16644 1
13316 16641 16645 1
13317 16646 16647 1
13318 16646 16648 1
13319 16646 16649 1
13320 16646 16650 1
13321 16651 16652 1
13322 16651 16653 1
13323 16651 16654 1
13324 16651 16655 1
13325 16656 16657 1
13326 16656 16658 1
13327 16656 16659 1
13328 16656 16660 1
13329 16661 16662 1
13330 16661 16663 1
13331 16661 16664 1
13332 16661 16665 1
13333 16666 16667 1
13334 16666 16668 1
13335 16666 16669 1
13336 16666 16670 1
13337 16671 16672 1
13338 16671 16673 1
13339 16671 16674 1
13340 16671 16675 1
13341 16676 16677 1
13342 16676 16678 1
13343 16676 16679 1
13344 16676 16680 1
13345 16681 16682 1
13346 16681 16683 1
13347 16681 16684 1
13348 16681 16685 1
13349 16686 16687 1
13350 16686 16688 1
13351 16686 16689 1
13352 16686 16690 1
13353 16691 16692 1
13354 16691 16693 1
13355 16691 16694 1
13356 16691 16695 1
13357 16696 16697 1
13358 16696 16698 1
13359 16696 16699 1
13360 16696 16700 1
13361 16701 16702 1
13362 16701 16703 1
13363 16701 16704 1
13364 16701 16705 1
13365 16706 16707 1
13366 16706 16708 1
13367 16706 16709 1
13368 16706 16710 1
13369 16711 16712 1
13370 16711 16713 1
13371 16711 16714 1
13372 16711 16715 1
13373 16716 16717 1
13374 16716 16718 1
13375 16716 16719 1
13376 16716 16720 1
13377 16721 16722 1
13378 16721 16723 1
13379 16721 16724 1
13380 16721 16725 1
13381 16726 16727 1
13382 16726 16728 1
13383 16726 16729 1
13384 16726 16730 1
13385 16731 16732 1
13386 16731 16733 1
13387 16731 16734 1
13388 16731 16735 1
13389 16736 16737 1
13390 16736 16738 1
13391 16736 16739 1
13392 16736 16740 1
13393 16741 16742 1
13394 16741 16743 1
13395 16741 16744 1
13396 16741 16745 1
13397 16746 16747 1
13398 16746 16748 1
13399 16746 16749 1
13400 16746 16750 1
13401 16751 16752 1
13402 16751 16753 1
13403 16751 16754 1
13404 16751 16755 1
13405 16756 16757 1
13406 16756 16758 1
13407 16756 16759 1
13408 16756 16760 1
13409 16761 16762 1
13410 16761 16763 1
13411 16761 16764 1
13412 16761 16765 1
13413 16766 16767 1
13414 16766 16768 1
13415 16766 16769 1
13416 16766 16770 1
13417 16771 16772 1
13418 16771 16773 1
13419 16771 16774 1
13420 16771 16775 1
13421 16776 16777 1
13422 16776 16778 1
13423 16776 16779 1
13424 16776 16780 1
13425 16781 16782 1
13426 16781 16783 1
13427 16781 16784 1
13428 16781 16785 1
13429 16786 16787 1
13430 16786 16788 1
13431 16786 16789 1
13432 16786 16790 1
13433 16791 16792 1
13434 16791 16793 1
13435 16791 16794 1
13436 16791 16795 1
13437 16796 16797 1
13438 16796 16798 1
13439 16796 16799 1
13440 16796 16800 1
13441 16801 16802 1
13442 16801 16803 1
13443 16801 16804 1
13444 16801 16805 1
13445 16806 16807 1
13446 16806 16808 1
13447 16806 16809 1
13448 16806 16810 1
13449 16811 16812 1
13450 16811 16813 1
13451 16811 16814 1
13452 16811 16815 1
13453 16816 16817 1
13454 16816 16818 1
13455 16816 16819 1
13456 16816 16820 1
13457 16821 16823 1
13458 16821 16824 1
13459 16821 16825 1
13460 16821 16822 1
13461 16826 16827 1
13462 16826 16828 1
13463 16826 16829 1
13464 16826 16830 1
13465 16831 16832 1
13466 16831 16833 1
13467 16831 16834 1
13468 16831 16835 1
13469 16836 16837 1
13470 16836 16838 1
13471 16836 16839 1
13472 16836 16840 1
13473 16841 16842 1
13474 16841 16843 1
13475 16841 16844 1
13476 16841 16845 1
13477 16846 16847 1
13478 16846 16848 1
13479 16846 16849 1
13480 16846 16850 1
13481 16851 16852 1
13482 16851 16853 1
13483 16851 16854 1
13484 16851 16855 1
13485 16856 16857 1
13486 16856 16858 1
13487 16856 16859 1
13488 16856 16860 1
13489 16861 16863 1
13490 16861 16864 1
13491 16861 16865 1
13492 16861 16862 1
13493 16866 16867 1
13494 16866 16868 1
13495 16866 16869 1
13496 16866 16870 1
13497 16871 16872 1
13498 16871 16873 1
13499 16871 16874 1
13500 16871 16875 1
13501 16876 16877 1
13502 16876 16878 1
13503 16876 16879 1
13504 16876 16880 1
13505 16881 16882 1
13506 16881 16883 1
13507 16881 16884 1
13508 16881 16885 1
13509 16886 16887 1
13510 16886 16888 1
13511 16886 16889 1
13512 16886 16890 1
13513 16891 16892 1
13514 16891 16893 1
13515 16891 16894 1
13516 16891 16895 1
13517 16896 16897 1
13518 16896 16898 1
13519 16896 16899 1
13520 16896 16900 1
13521 16901 16902 1
13522 16901 16903 1
13523 16901 16904 1
13524 16901 16905 1
13525 16906 16907 1
13526 16906 16908 1
13527 16906 16909 1
13528 16906 16910 1
13529 16911 16912 1
13530 16911 16913 1
13531 16911 16914 1
13532 16911 16915 1
13533 16916 16917 1
13534 16916 16918 1
13535 16916 16919 1
13536 16916 16920 1
13537 16921 16922 1
13538 16921 16923 1
13539 16921 16924 1
13540 16921 16925 1
13541 16926 16927 1
13542 16926 16928 1
13543 16926 16929 1
13544 16926 16930 1
13545 16931 16932 1
13546 16931 16933 1
13547 16931 16934 1
13548 16931 16935 1
13549 16936 16937 1
13550 16936 16938 1
13551 16936 16939 1
13552 16936 16940 1
13553 16941 16944 1
13554 16941 16945 1
13555 16941 16942 1
13556 16941 16943 1
13557 16946 16947 1
13558 16946 16948 1
13559 16946 16949 1
13560 16946 16950 1
13561 16951 16952 1
13562 16951 16953 1
13563 16951 16954 1
13564 16951 16955 1
13565 16956 16957 1
13566 16956 16958 1
13567 16956 16959 1
13568 16956 16960 1
13569 16961 16962 1
13570 16961 16963 1
13571 16961 16964 1
13572 16961 16965 1
13573 16966 16967 1
13574 16966 16968 1
13575 16966 16969 1
13576 16966 16970 1
13577 16971 16972 1
13578 16971 16973 1
13579 16971 16974 1
13580 16971 16975 1
13581 16976 16977 1
13582 16976 16978 1
13583 16976 16979 1
13584 16976 16980 1
13585 16981 16982 1
13586 16981 16983 1
13587 16981 16984 1
13588 16981 16985 1
13589 16986 16987 1
13590 16986 16988 1
13591 16986 16989 1
13592 16986 16990 1
13593 16991 16992 1
13594 16991 16993 1
13595 16991 16994 1
13596 16991 16995 1
13597 16996 16997 1
13598 16996 16998 1
13599 16996 16999 1
13600 16996 17000 1
13601 17001 17002 1
13602 17001 17003 1
13603 17001 17004 1
13604 17001 17005 1
13605 17006 17007 1
13606 17006 17008 1
13607 17006 17009 1
13608 17006 17010 1
13609 17011 17012 1
13610 17011 17013 1
13611 17011 17014 1
13612 17011 17015 1
13613 17016 17017 1
13614 17016 17018 1
13615 17016 17019 1
13616 17016 17020 1
13617 17021 17022 1
13618 17021 17023 1
13619 17021 17024 1
13620 17021 17025 1
13621 17026 17027 1
13622 17026 17028 1
13623 17026 17029 1
13624 17026 17030 1
13625 17031 17032 1
13626 17031 17033 1
13627 17031 17034 1
13628 17031 17035 1
13629 17036 17037 1
13630 17036 17038 1
13631 17036 17039 1
13632 17036 17040 1
13633 17041 17042 1
13634 17041 17043 1
13635 17041 17044 1
13636 17041 17045 1
13637 17046 17047 1
13638 17046 17048 1
13639 17046 17049 1
13640 17046 17050 1
13641 17051 17052 1
13642 17051 17053 1
13643 17051 17054 1
13644 17051 17055 1
13645 17056 17057 1
13646 17056 17058 1
13647 17056 17059 1
13648 17056 17060 1
13649 17061 17062 1
13650 17061 17063 1
13651 17061 17064 1
13652 17061 17065 1
13653 17066 17067 1
13654 17066 17068 1
13655 17066 17069 1
13656 17066 17070 1
13657 17071 17072 1
13658 17071 17073 1
13659 17071 17074 1
13660 17071 17075 1
13661 17076 17077 1
13662 17076 17078 1
13663 17076 17079 1
13664 17076 17080 1
13665 17081 17082 1
13666 17081 17083 1
13667 17081 17084 1
13668 17081 17085 1
13669 17086 17087 1
13670 17086 17088 1
13671 17086 17089 1
13672 17086 17090 1
13673 17091 17092 1
13674 17091 17093 1
13675 17091 17094 1
13676 17091 17095 1
13677 17096 17097 1
13678 17096 17098 1
13679 17096 17099 1
13680 17096 17100 1
13681 17101 17102 1
13682 17101 17103 1
13683 17101 17104 1
13684 17101 17105 1
13685 17106 17107 1
13686 17106 17108 1
13687 17106 17109 1
13688 17106 17110 1
13689 17111 17115 1
13690 17111 17112 1
13691 17111 17113 1
13692 17111 17114 1
13693 17116 17117 1
13694 17116 17118 1
13695 17116 17119 1
13696 17116 17120 1
13697 17121 17122 1
13698 17121 17123 1
13699 17121 17124 1
13700 17121 17125 1
13701 17126 17127 1
13702 17126 17128 1
13703 17126 17129 1
13704 17126 17130 1
13705 17131 17132 1
13706 17131 17133 1
13707 17131 17134 1
13708 17131 17135 1
13709 17136 17137 1
13710 17136 17138 1
13711 17136 17139 1
13712 17136 17140 1
13713 17141 17142 1
13714 17141 17143 1
13715 17141 17144 1
13716 17141 17145 1
13717 17146 17147 1
13718 17146 17148 1
13719 17146 17149 1
13720 17146 17150 1
13721 17151 17152 1
13722 17151 17153 1
13723 17151 17154 1
13724 17151 17155 1
13725 17156 17157 1
13726 17156 17158 1
13727 17156 17159 1
13728 17156 17160 1
13729 17161 17162 1
13730 17161 17163 1
13731 17161 17164 1
13732 17161 17165 1
13733 17166 17167 1
13734 17166 17168 1
13735 17166 17169 1
13736 17166 17170 1
13737 17171 17172 1
13738 17171 17173 1
13739 17171 17174 1
13740 17171 17175 1
13741 17176 17177 1
13742 17176 17178 1
13743 17176 17179 1
13744 17176 17180 1
13745 17181 17182 1
13746 17181 17183 1
13747 17181 17184 1
13748 17181 17185 1
13749 17186 17187 1
13750 17186 17188 1
13751 17186 17189 1
13752 17186 17190 1
13753 17191 17192 1
13754 17191 17193 1
13755 17191 17194 1
13756 17191 17195 1
13757 17196 17197 1
13758 17196 17198 1
13759 17196 17199 1
13760 17196 17200 1
13761 17201 17202 1
13762 17201 17203 1
13763 17201 17204 1
13764 17201 17205 1
13765 17206 17207 1
13766 17206 17208 1
13767 17206 17209 1
13768 17206 17210 1
13769 17211 17212 1
13770 17211 17213 1
13771 17211 17214 1
13772 17211 17215 1
13773 17216 17217 1
13774 17216 17218 1
13775 17216 17219 1
13776 17216 17220 1
13777 17221 17222 1
13778 17221 17223 1
13779 17221 17224 1
13780 17221 17225 1
13781 17226 17227 1
13782 17226 17228 1
13783 17226 17229 1
13784 17226 17230 1
13785 17231 17232 1
13786 17231 17233 1
13787 17231 17234 1
13788 17231 17235 1
13789 17236 17237 1
13790 17236 17238 1
13791 17236 17239 1
13792 17236 17240 1
13793 17241 17242 1
13794 17241 17243 1
13795 17241 17244 1
13796 17241 17245 1
13797 17246 17247 1
13798 17246 17248 1
13799 17246 17249 1
13800 17246 17250 1
13801 17251 17252 1
13802 17251 17253 1
13803 17251 17254 1
13804 17251 17255 1
13805 17256 17257 1
13806 17256 17258 1
13807 17256 17259 1
13808 17256 17260 1
13809 17261 17262 1
13810 17261 17263 1
13811 17261 17264 1
13812 17261 17265 1
13813 17266 17267 1
13814 17266 17268 1
13815 17266 17269 1
13816 17266 17270 1
13817 17271 17272 1
13818 17271 17273 1
13819 17271 17274 1
13820 17271 17275 1
13821 17276 17277 1
13822 17276 17278 1
13823 17276 17279 1
13824 17276 17280 1
13825 17281 17283 1
13826 17281 17284 1
13827 17281 17285 1
13828 17281 17282 1
13829 17286 17287 1
13830 17286 17288 1
13831 17286 17289 1
13832 17286 17290 1
13833 17291 17292 1
13834 17291 17293 1
13835 17291 17294 1
13836 17291 17295 1
13837 17296 17297 1
13838 17296 17298 1
13839 17296 17299 1
13840 17296 17300 1
13841 17301 17302 1
13842 17301 17303 1
13843 17301 17304 1
13844 17301 17305 1
13845 17306 17307 1
13846 17306 17308 1
13847 17306 17309 1
13848 17306 17310 1
13849 17311 17312 1
13850 17311 17313 1
13851 17311 17314 1
13852 17311 17315 1
13853 17316 17317 1
13854 17316 17318 1
13855 17316 17319 1
13856 17316 17320 1
13857 17321 17322 1
13858 17321 17323 1
13859 17321 17324 1
13860 17321 17325 1
13861 17326 17327 1
13862 17326 17328 1
13863 17326 17329 1
13864 17326 17330 1
13865 17331 17332 1
13866 17331 17333 1
13867 17331 17334 1
13868 17331 17335 1
13869 17336 17337 1
13870 17336 17338 1
13871 17336 17339 1
13872 17336 17340 1
13873 17341 17342 1
13874 17341 17343 1
13875 17341 17344 1
13876 17341 17345 1
13877 17346 17347 1
13878 17346 17348 1
13879 17346 17349 1
13880 17346 17350 1
13881 17351 17352 1
13882 17351 17353 1
13883 17351 17354 1
13884 17351 17355 1
13885 17356 17357 1
13886 17356 17358 1
13887 17356 17359 1
13888 17356 17360 1
13889 17361 17364 1
13890 17361 17362 1
13891 17361 17363 1
13892 17361 17365 1
13893 17366 17367 1
13894 17366 17368 1
13895 17366 17369 1
13896 17366 17370 1
13897 17371 17372 1
13898 17371 17373 1
13899 17371 17374 1
13900 17371 17375 1
13901 17376 17377 1
13902 17376 17378 1
13903 17376 17379 1
13904 17376 17380 1
13905 17381 17382 1
13906 17381 17383 1
13907 17381 17384 1
13908 17381 17385 1
13909 17386 17387 1
13910 17386 17388 1
13911 17386 17389 1
13912 17386 17390 1
13913 17391 17392 1
13914 17391 17393 1
13915 17391 17394 1
13916 17391 17395 1
13917 17396 17397 1
13918 17396 17398 1
13919 17396 17399 1
13920 17396 17400 1
13921 17401 17402 1
13922 17401 17403 1
13923 17401 17404 1
13924 17401 17405 1
13925 17406 17407 1
13926 17406 17408 1
13927 17406 17409 1
13928 17406 17410 1
13929 17411 17412 1
13930 17411 17413 1
13931 17411 17414 1
13932 17411 17415 1
13933 17416 17417 1
13934 17416 17418 1
13935 17416 17419 1
13936 17416 17420 1
13937 17421 17422 1
13938 17421 17423 1
13939 17421 17424 1
13940 17421 17425 1
13941 17426 17428 1
13942 17426 17427 1
13943 17426 17429 1
13944 17426 17430 1
13945 17431 17432 1
13946 17431 17433 1
13947 17431 17434 1
13948 17431 17435 1
13949 17436 17437 1
13950 17436 17438 1
13951 17436 17439 1
13952 17436 17440 1
13953 17441 17442 1
13954 17441 17443 1
13955 17441 17444 1
13956 17441 17445 1
13957 17446 17449 1
13958 17446 17450 1
13959 17446 17447 1
13960 17446 17448 1
13961 17451 17452 1
13962 17451 17453 1
13963 17451 17454 1
13964 17451 17455 1
13965 17456 17457 1
13966 17456 17458 1
13967 17456 17459 1
13968 17456 17460 1
13969 17461 17462 1
13970 17461 17463 1
13971 17461 17464 1
13972 17461 17465 1
13973 17466 17467 1
13974 17466 17468 1
13975 17466 17469 1
13976 17466 17470 1
13977 17471 17472 1
13978 17471 17473 1
13979 17471 17474 1
13980 17471 17475 1
13981 17476 17477 1
13982 17476 17478 1
13983 17476 17479 1
13984 17476 17480 1
13985 17481 17482 1
13986 17481 17483 1
13987 17481 17484 1
13988 17481 17485 1
13989 17486 17487 1
13990 17486 17488 1
13991 17486 17489 1
13992 17486 17490 1
13993 17491 17492 1
13994 17491 17493 1
13995 17491 17494 1
13996 17491 17495 1
13997 17496 17497 1
13998 17496 17498 1
13999 17496 17499 1
14000 17496 17500 1
14001 17501 17502 1
14002 17501 17503 1
14003 17501 17504 1
14004 17501 17505 1
14005 17506 17507 1
14006 17506 17508 1
14007 17506 17509 1
14008 17506 17510 1
14009 17511 17512 1
14010 17511 17513 1
14011 17511 17514 1
14012 17511 17515 1
14013 17516 17517 1
14014 17516 17518 1
14015 17516 17519 1
14016 17516 17520 1
14017 17521 17522 1
14018 17521 17523 1
14019 17521 17524 1
14020 17521 17525 1
14021 17526 17527 1
14022 17526 17528 1
14023 17526 17529 1
14024 17526 17530 1
14025 17531 17535 1
14026 17531 17532 1
14027 17531 17533 1
14028 17531 17534 1
14029 17536 17537 1
14030 17536 17538 1
14031 17536 17539 1
14032 17536 17540 1
14033 17541 17542 1
14034 17541 17543 1
14035 17541 17544 1
14036 17541 17545 1
14037 17546 17547 1
14038 17546 17548 1
14039 17546 17549 1
14040 17546 17550 1
14041 17551 17552 1
14042 17551 17553 1
14043 17551 17554 1
14044 17551 17555 1
14045 17556 17557 1
14046 17556 17558 1
14047 17556 17559 1
14048 17556 17560 1
14049 17561 17562 1
14050 17561 17563 1
14051 17561 17564 1
14052 17561 17565 1
14053 17566 17567 1
14054 17566 17568 1
14055 17566 17569 1
14056 17566 17570 1
14057 17571 17572 1
14058 17571 17573 1
14059 17571 17574 1
14060 17571 17575 1
14061 17576 17577 1
14062 17576 17578 1
14063 17576 17579 1
14064 17576 17580 1
14065 17581 17582 1
14066 17581 17583 1
14067 17581 17584 1
14068 17581 17585 1
14069 17586 17587 1
14070 17586 17588 1
14071 17586 17589 1
14072 17586 17590 1
14073 17591 17592 1
14074 17591 17593 1
14075 17591 17594 1
14076 17591 17595 1
14077 17596 17597 1
14078 17596 17598 1
14079 17596 17599 1
14080 17596 17600 1
14081 17601 17602 1
14082 17601 17603 1
14083 17601 17604 1
14084 17601 17605 1
14085 17606 17607 1
14086 17606 17608 1
14087 17606 17609 1
14088 17606 17610 1
14089 17611 17612 1
14090 17611 17613 1
14091 17611 17614 1
14092 17611 17615 1
14093 17616 17619 1
14094 17616 17620 1
14095 17616 17617 1
14096 17616 17618 1
14097 17621 17622 1
14098 17621 17623 1
14099 17621 17624 1
14100 17621 17625 1
14101 17626 17627 1
14102 17626 17628 1
14103 17626 17629 1
14104 17626 17630 1
14105 17631 17632 1
14106 17631 17633 1
14107 17631 17634 1
14108 17631 17635 1
14109 17636 17637 1
14110 17636 17638 1
14111 17636 17639 1
14112 17636 17640 1
14113 17641 17642 1
14114 17641 17643 1
14115 17641 17644 1
14116 17641 17645 1
14117 17646 17647 1
14118 17646 17648 1
14119 17646 17649 1
14120 17646 17650 1
14121 17651 17652 1
14122 17651 17653 1
14123 17651 17654 1
14124 17651 17655 1
14125 17656 17657 1
14126 17656 17658 1
14127 17656 17659 1
14128 17656 17660 1
14129 17661 17662 1
14130 17661 17663 1
14131 17661 17664 1
14132 17661 17665 1
14133 17666 17667 1
14134 17666 17668 1
14135 17666 17669 1
14136 17666 17670 1
14137 17671 17672 1
14138 17671 17673 1
14139 17671 17674 1
14140 17671 17675 1
14141 17676 17677 1
14142 17676 17678 1
14143 17676 17679 1
14144 17676 17680 1
14145 17681 17682 1
14146 17681 17683 1
14147 17681 17684 1
14148 17681 17685 1
14149 17686 17687 1
14150 17686 17688 1
14151 17686 17689 1
14152 17686 17690 1
14153 17691 17692 1
14154 17691 17693 1
14155 17691 17694 1
14156 17691 17695 1
14157 17696 17697 1
14158 17696 17698 1
14159 17696 17699 1
14160 17696 17700 1
14161 17701 17702 1
14162 17701 17703 1
14163 17701 17704 1
14164 17701 17705 1
14165 17706 17707 1
14166 17706 17708 1
14167 17706 17709 1
14168 17706 17710 1
14169 17711 17712 1
14170 17711 17713 1
14171 17711 17714 1
14172 17711 17715 1
14173 17716 17717 1
14174 17716 17718 1
14175 17716 17719 1
14176 17716 17720 1
14177 17721 17722 1
14178 17721 17723 1
14179 17721 17724 1
14180 17721 17725 1
14181 17726 17727 1
14182 17726 17728 1
14183 17726 17729 1
14184 17726 17730 1
14185 17731 17732 1
14186 17731 17733 1
14187 17731 17734 1
14188 17731 17735 1
14189 17736 17737 1
14190 17736 17738 1
14191 17736 17739 1
14192 17736 17740 1
14193 17741 17742 1
14194 17741 17743 1
14195 17741 17745 1
14196 17741 17744 1
14197 17746 17747 1
14198 17746 17748 1
14199 17746 17749 1
14200 17746 17750 1
14201 17751 17752 1
14202 17751 17753 1
14203 17751 17754 1
14204 17751 17755 1
14205 17756 17757 1
14206 17756 17758 1
14207 17756 17759 1
14208 17756 17760 1
14209 17761 17762 1
14210 17761 17763 1
14211 17761 17764 1
14212 17761 17765 1
14213 17766 17767 1
14214 17766 17768 1
14215 17766 17769 1
14216 17766 17770 1
14217 17771 17772 1
14218 17771 17773 1
14219 17771 17774 1
14220 17771 17775 1
14221 17776 17777 1
14222 17776 17778 1
14223 17776 17779 1
14224 17776 17780 1
14225 17781 17784 1
14226 17781 17785 1
14227 17781 17782 1
14228 17781 17783 1
14229 17786 17787 1
14230 17786 17788 1
14231 17786 17789 1
14232 17786 17790 1
14233 17791 17792 1
14234 17791 17793 1
14235 17791 17794 1
14236 17791 17795 1
14237 17796 17797 1
14238 17796 17798 1
14239 17796 17799 1
14240 17796 17800 1
14241 17801 17802 1
14242 17801 17803 1
14243 17801 17804 1
14244 17801 17805 1
14245 17806 17807 1
14246 17806 17808 1
14247 17806 17809 1
14248 17806 17810 1
14249 17811 17812 1
14250 17811 17813 1
14251 17811 17814 1
14252 17811 17815 1
14253 17816 17817 1
14254 17816 17818 1
14255 17816 17819 1
14256 17816 17820 1
14257 17821 17822 1
14258 17821 17823 1
14259 17821 17824 1
14260 17821 17825 1
14261 17826 17827 1
14262 17826 17828 1
14263 17826 17829 1
14264 17826 17830 1
14265 17831 17832 1
14266 17831 17833 1
14267 17831 17834 1
14268 17831 17835 1
14269 17836 17837 1
14270 17836 17838 1
14271 17836 17839 1
14272 17836 17840 1
14273 17841 17842 1
14274 17841 17843 1
14275 17841 17844 1
14276 17841 17845 1
14277 17846 17847 1
14278 17846 17848 1
14279 17846 17849 1
14280 17846 17850 1
14281 17851 17852 1
14282 17851 17853 1
14283 17851 17854 1
14284 17851 17855 1
14285 17856 17857 1
14286 17856 17858 1
14287 17856 17859 1
14288 17856 17860 1
14289 17861 17862 1
14290 17861 17863 1
14291 17861 17864 1
14292 17861 17865 1
14293 17866 17868 1
14294 17866 17869 1
14295 17866 17867 1
14296 17866 17870 1
14297 17871 17872 1
14298 17871 17873 1
14299 17871 17874 1
14300 17871 17875 1
14301 17876 17877 1
14302 17876 17878 1
14303 17876 17879 1
14304 17876 17880 1
14305 17881 17882 1
14306 17881 17883 1
14307 17881 17884 1
14308 17881 17885 1
14309 17886 17887 1
14310 17886 17888 1
14311 17886 17889 1
14312 17886 17890 1
14313 17891 17892 1
14314 17891 17893 1
14315 17891 17894 1
14316 17891 17895 1
14317 17896 17897 1
14318 17896 17898 1
14319 17896 17899 1
14320 17896 17900 1
14321 17901 17902 1
14322 17901 17903 1
14323 17901 17904 1
14324 17901 17905 1
14325 17906 17907 1
14326 17906 17908 1
14327 17906 17909 1
14328 17906 17910 1
14329 17911 17912 1
14330 17911 17913 1
14331 17911 17914 1
14332 17911 17915 1
14333 17916 17917 1
14334 17916 17918 1
14335 17916 17919 1
14336 17916 17920 1
14337 17921 17922 1
14338 17921 17923 1
14339 17921 17924 1
14340 17921 17925 1
14341 17926 17927 1
14342 17926 17928 1
14343 17926 17929 1
14344 17926 17930 1
14345 17931 17932 1
14346 17931 17933 1
14347 17931 17934 1
14348 17931 17935 1
14349 17936 17937 1
14350 17936 17938 1
14351 17936 17939 1
14352 17936 17940 1
14353 17941 17942 1
14354 17941 17943 1
14355 17941 17944 1
14356 17941 17945 1
14357 17946 17947 1
14358 17946 17948 1
14359 17946 17949 1
14360 17946 17950 1
14361 17951 17955 1
14362 17951 17952 1
14363 17951 17953 1
14364 17951 17954 1
14365 17956 17957 1
14366 17956 17958 1
14367 17956 17959 1
14368 17956 17960 1
14369 17961 17962 1
14370 17961 17963 1
14371 17961 17964 1
14372 17961 17965 1
14373 17966 17967 1
14374 17966 17968 1
14375 17966 17969 1
14376 17966 17970 1
14377 17971 17972 1
14378 17971 17974 1
14379 17971 17973 1
14380 17971 17975 1
14381 17976 17977 1
14382 17976 17978 1
14383 17976 17979 1
14384 17976 17980 1
14385 17981 17982 1
14386 17981 17983 1
14387 17981 17984 1
14388 17981 17985 1
14389 17986 17987 1
14390 17986 17988 1
14391 17986 17989 1
14392 17986 17990 1
14393 17991 17992 1
14394 17991 17993 1
14395 17991 17994 1
14396 17991 17995 1
14397 17996 17997 1
14398 17996 17998 1
14399 17996 17999 1
14400 17996 18000 1
14401 18001 18002 1
14402 18001 18003 1
14403 18001 18004 1
14404 18001 18005 1
14405 18006 18007 1
14406 18006 18008 1
14407 18006 18009 1
14408 18006 18010 1
14409 18011 18012 1
14410 18011 18013 1
14411 18011 18014 1
14412 18011 18015 1
14413 18016 18017 1
14414 18016 18018 1
14415 18016 18019 1
14416 18016 18020 1
14417 18021 18022 1
14418 18021 18023 1
14419 18021 18024 1
14420 18021 18025 1
14421 18026 18027 1
14422 18026 18028 1
14423 18026 18029 1
14424 18026 18030 1
14425 18031 18032 1
14426 18031 18033 1
14427 18031 18034 1
14428 18031 18035 1
14429 18036 18039 1
14430 18036 18040 1
14431 18036 18037 1
14432 18036 18038 1
14433 18041 18042 1
14434 18041 18043 1
14435 18041 18044 1
14436 18041 18045 1
14437 18046 18047 1
14438 18046 18048 1
14439 18046 18049 1
14440 18046 18050 1
14441 18051 18052 1
14442 18051 18053 1
14443 18051 18054 1
14444 18051 18055 1
14445 18056 18057 1
14446 18056 18058 1
14447 18056 18059 1
14448 18056 18060 1
14449 18061 18062 1
14450 18061 18063 1
14451 18061 18064 1
14452 18061 18065 1
14453 18066 18067 1
14454 18066 18068 1
14455 18066 18069 1
14456 18066 18070 1
14457 18071 18072 1
14458 18071 18073 1
14459 18071 18074 1
14460 18071 18075 1
14461 18076 18077 1
14462 18076 18078 1
14463 18076 18080 1
14464 18076 18079 1
14465 18081 18082 1
14466 18081 18083 1
14467 18081 18084 1
14468 18081 18085 1
14469 18086 18087 1
14470 18086 18088 1
14471 18086 18089 1
14472 18086 18090 1
14473 18091 18092 1
14474 18091 18093 1
14475 18091 18094 1
14476 18091 18095 1
14477 18096 18097 1
14478 18096 18098 1
14479 18096 18099 1
14480 18096 18100 1
14481 18101 18102 1
14482 18101 18103 1
14483 18101 18104 1
14484 18101 18105 1
14485 18106 18107 1
14486 18106 18108 1
14487 18106 18109 1
14488 18106 18110 1
14489 18111 18112 1
14490 18111 18113 1
14491 18111 18114 1
14492 18111 18115 1
14493 18116 18117 1
14494 18116 18118 1
14495 18116 18119 1
14496 18116 18120 1
14497 18121 18123 1
14498 18121 18124 1
14499 18121 18125 1
14500 18121 18122 1
14501 18126 18127 1
14502 18126 18128 1
14503 18126 18129 1
14504 18126 18130 1
14505 18131 18132 1
14506 18131 18133 1
14507 18131 18134 1
14508 18131 18135 1
14509 18136 18137 1
14510 18136 18138 1
14511 18136 18139 1
14512 18136 18140 1
14513 18141 18142 1
14514 18141 18143 1
14515 18141 18144 1
14516 18141 18145 1
14517 18146 18147 1
14518 18146 18148 1
14519 18146 18149 1
14520 18146 18150 1
14521 18151 18152 1
14522 18151 18153 1
14523 18151 18154 1
14524 18151 18155 1
14525 18156 18157 1
14526 18156 18158 1
14527 18156 18159 1
14528 18156 18160 1
14529 18161 18162 1
14530 18161 18163 1
14531 18161 18164 1
14532 18161 18165 1
14533 18166 18167 1
14534 18166 18168 1
14535 18166 18169 1
14536 18166 18170 1
14537 18171 18172 1
14538 18171 18173 1
14539 18171 18174 1
14540 18171 18175 1
14541 18176 18177 1
14542 18176 18178 1
14543 18176 18179 1
14544 18176 18180 1
14545 18181 18182 1
14546 18181 18183 1
14547 18181 18184 1
14548 18181 18185 1
14549 18186 18187 1
14550 18186 18188 1
14551 18186 18189 1
14552 18186 18190 1
14553 18191 18192 1
14554 18191 18193 1
14555 18191 18194 1
14556 18191 18195 1
14557 18196 18197 1
14558 18196 18198 1
14559 18196 18200 1
14560 18196 18199 1
14561 18201 18202 1
14562 18201 18203 1
14563 18201 18204 1
14564 18201 18205 1
14565 18206 18207 1
14566 18206 18208 1
14567 18206 18209 1
14568 18206 18210 1
14569 18211 18212 1
14570 18211 18213 1
14571 18211 18214 1
14572 18211 18215 1
14573 18216 18217 1
14574 18216 18218 1
14575 18216 18219 1
14576 18216 18220 1
14577 18221 18222 1
14578 18221 18223 1
14579 18221 18224 1
14580 18221 18225 1
14581 18226 18227 1
14582 18226 18228 1
14583 18226 18229 1
14584 18226 18230 1
14585 18231 18232 1
14586 18231 18233 1
14587 18231 18234 1
14588 18231 18235 1
14589 18236 18237 1
14590 18236 18238 1
14591 18236 18239 1
14592 18236 18240 1
14593 18241 18242 1
14594 18241 18243 1
14595 18241 18244 1
14596 18241 18245 1
14597 18246 18247 1
14598 18246 18248 1
14599 18246 18249 1
14600 18246 18250 1
14601 18251 18252 1
14602 18251 18253 1
14603 18251 18254 1
14604 18251 18255 1
14605 18256 18257 1
14606 18256 18258 1
14607 18256 18259 1
14608 18256 18260 1
14609 18261 18262 1
14610 18261 18263 1
14611 18261 18264 1
14612 18261 18265 1
14613 18266 18267 1
14614 18266 18268 1
14615 18266 18269 1
14616 18266 18270 1
14617 18271 18272 1
14618 18271 18273 1
14619 18271 18274 1
14620 18271 18275 1
14621 18276 18277 1
14622 18276 18278 1
14623 18276 18279 1
14624 18276 18280 1
14625 18281 18282 1
14626 18281 18283 1
14627 18281 18284 1
14628 18281 18285 1
14629 18286 18290 1
14630 18286 18287 1
14631 18286 18288 1
14632 18286 18289 1
14633 18291 18292 1
14634 18291 18293 1
14635 18291 18294 1
14636 18291 18295 1
14637 18296 18297 1
14638 18296 18298 1
14639 18296 18299 1
14640 18296 18300 1
14641 18301 18302 1
14642 18301 18303 1
14643 18301 18304 1
14644 18301 18305 1
14645 18306 18307 1
14646 18306 18308 1
14647 18306 18309 1
14648 18306 18310 1
14649 18311 18312 1
14650 18311 18313 1
14651 18311 18314 1
14652 18311 18315 1
14653 18316 18317 1
14654 18316 18318 1
14655 18316 18319 1
14656 18316 18320 1
14657 18321 18322 1
14658 18321 18323 1
14659 18321 18324 1
14660 18321 18325 1
14661 18326 18327 1
14662 18326 18328 1
14663 18326 18329 1
14664 18326 18330 1
14665 18331 18332 1
14666 18331 18333 1
14667 18331 18334 1
14668 18331 18335 1
14669 18336 18337 1
14670 18336 18338 1
14671 18336 18339 1
14672 18336 18340 1
14673 18341 18342 1
14674 18341 18343 1
14675 18341 18344 1
14676 18341 18345 1
14677 18346 18347 1
14678 18346 18348 1
14679 18346 18349 1
14680 18346 18350 1
14681 18351 18352 1
14682 18351 18353 1
14683 18351 18354 1
14684 18351 18355 1
14685 18356 18357 1
14686 18356 18358 1
14687 18356 18359 1
14688 18356 18360 1
14689 18361 18362 1
14690 18361 18363 1
14691 18361 18364 1
14692 18361 18365 1
14693 18366 18367 1
14694 18366 18368 1
14695 18366 18369 1
14696 18366 18370 1
14697 18371 18375 1
14698 18371 18372 1
14699 18371 18373 1
14700 18371 18374 1
14701 18376 18377 1
14702 18376 18378 1
14703 18376 18379 1
14704 18376 18380 1
14705 18381 18382 1
14706 18381 18383 1
14707 18381 18384 1
14708 18381 18385 1
14709 18386 18387 1
14710 18386 18388 1
14711 18386 18389 1
14712 18386 18390 1
14713 18391 18392 1
14714 18391 18393 1
14715 18391 18394 1
14716 18391 18395 1
14717 18396 18397 1
14718 18396 18398 1
14719 18396 18399 1
14720 18396 18400 1
14721 18401 18402 1
14722 18401 18403 1
14723 18401 18404 1
14724 18401 18405 1
14725 18406 18407 1
14726 18406 18408 1
14727 18406 18409 1
14728 18406 18410 1
14729 18411 18412 1
14730 18411 18413 1
14731 18411 18414 1
14732 18411 18415 1
14733 18416 18417 1
14734 18416 18418 1
14735 18416 18419 1
14736 18416 18420 1
14737 18421 18422 1
14738 18421 18423 1
14739 18421 18424 1
14740 18421 18425 1
14741 18426 18427 1
14742 18426 18428 1
14743 18426 18429 1
14744 18426 18430 1
14745 18431 18432 1
14746 18431 18433 1
14747 18431 18434 1
14748 18431 18435 1
14749 18436 18437 1
14750 18436 18438 1
14751 18436 18440 1
14752 18436 18439 1
14753 18441 18442 1
14754 18441 18443 1
14755 18441 18444 1
14756 18441 18445 1
14757 18446 18447 1
14758 18446 18448 1
14759 18446 18449 1
14760 18446 18450 1
14761 18451 18452 1
14762 18451 18453 1
14763 18451 18454 1
14764 18451 18455 1
14765 18456 18459 1
14766 18456 18460 1
14767 18456 18457 1
14768 18456 18458 1
14769 18461 18462 1
14770 18461 18463 1
14771 18461 18464 1
14772 18461 18465 1
14773 18466 18467 1
14774 18466 18468 1
14775 18466 18469 1
14776 18466 18470 1
14777 18471 18472 1
14778 18471 18473 1
14779 18471 18474 1
14780 18471 18475 1
14781 18476 18477 1
14782 18476 18478 1
14783 18476 18479 1
14784 18476 18480 1
14785 18481 18482 1
14786 18481 18483 1
14787 18481 18484 1
14788 18481 18485 1
14789 18486 18487 1
14790 18486 18488 1
14791 18486 18489 1
14792 18486 18490 1
14793 18491 18492 1
14794 18491 18493 1
14795 18491 18494 1
14796 18491 18495 1
14797 18496 18497 1
14798 18496 18498 1
14799 18496 18499 1
14800 18496 18500 1
14801 18501 18502 1
14802 18501 18503 1
14803 18501 18504 1
14804 18501 18505 1
14805 18506 18507 1
14806 18506 18508 1
14807 18506 18509 1
14808 18506 18510 1
14809 18511 18512 1
14810 18511 18513 1
14811 18511 18514 1
14812 18511 18515 1
14813 18516 18517 1
14814 18516 18518 1
14815 18516 18519 1
14816 18516 18520 1
14817 18521 18522 1
14818 18521 18523 1
14819 18521 18524 1
14820 18521 18525 1
14821 18526 18527 1
14822 18526 18528 1
14823 18526 18529 1
14824 18526 18530 1
14825 18531 18532 1
14826 18531 18533 1
14827 18531 18534 1
14828 18531 18535 1
14829 18536 18537 1
14830 18536 18538 1
14831 18536 18539 1
14832 18536 18540 1
14833 18541 18543 1
14834 18541 18544 1
14835 18541 18545 1
14836 18541 18542 1
14837 18546 18547 1
14838 18546 18548 1
14839 18546 18549 1
14840 18546 18550 1
14841 18551 18552 1
14842 18551 18553 1
14843 18551 18554 1
14844 18551 18555 1
14845 18556 18557 1
14846 18556 18558 1
14847 18556 18559 1
14848 18556 18560 1
14849 18561 18562 1
14850 18561 18563 1
14851 18561 18564 1
14852 18561 18565 1
14853 18566 18567 1
14854 18566 18568 1
14855 18566 18569 1
14856 18566 18570 1
14857 18571 18572 1
14858 18571 18573 1
14859 18571 18574 1
14860 18571 18575 1
14861 18576 18577 1
14862 18576 18578 1
14863 18576 18579 1
14864 18576 18580 1
14865 18581 18585 1
14866 18581 18582 1
14867 18581 18583 1
14868 18581 18584 1
14869 18586 18587 1
14870 18586 18588 1
14871 18586 18589 1
14872 18586 18590 1
14873 18591 18592 1
14874 18591 18593 1
14875 18591 18594 1
14876 18591 18595 1
14877 18596 18597 1
14878 18596 18598 1
14879 18596 18599 1
14880 18596 18600 1
14881 18601 18602 1
14882 18601 18603 1
14883 18601 18604 1
14884 18601 18605 1
14885 18606 18608 1
14886 18606 18607 1
14887 18606 18610 1
14888 18606 18609 1
14889 18611 18612 1
14890 18611 18613 1
14891 18611 18614 1
14892 18611 18615 1
14893 18616 18617 1
14894 18616 18618 1
14895 18616 18619 1
14896 18616 18620 1
14897 18621 18622 1
14898 18621 18623 1
14899 18621 18624 1
14900 18621 18625 1
14901 18626 18627 1
14902 18626 18628 1
14903 18626 18629 1
14904 18626 18630 1
14905 18631 18632 1
14906 18631 18633 1
14907 18631 18634 1
14908 18631 18635 1
14909 18636 18637 1
14910 18636 18638 1
14911 18636 18639 1
14912 18636 18640 1
14913 18641 18642 1
14914 18641 18643 1
14915 18641 18644 1
14916 18641 18645 1
14917 18646 18647 1
14918 18646 18648 1
14919 18646 18649 1
14920 18646 18650 1
14921 18651 18652 1
14922 18651 18653 1
14923 18651 18654 1
14924 18651 18655 1
14925 18656 18657 1
14926 18656 18658 1
14927 18656 18659 1
14928 18656 18660 1
14929 18661 18662 1
14930 18661 18663 1
14931 18661 18664 1
14932 18661 18665 1
14933 18666 18667 1
14934 18666 18668 1
14935 18666 18669 1
14936 18666 18670 1
14937 18671 18672 1
14938 18671 18673 1
14939 18671 18674 1
14940 18671 18675 1
14941 18676 18677 1
14942 18676 18678 1
14943 18676 18679 1
14944 18676 18680 1
14945 18681 18682 1
14946 18681 18683 1
14947 18681 18684 1
14948 18681 18685 1
14949 18686 18687 1
14950 18686 18688 1
14951 18686 18689 1
14952 18686 18690 1
14953 18691 18692 1
14954 18691 18693 1
14955 18691 18694 1
14956 18691 18695 1
14957 18696 18697 1
14958 18696 18698 1
14959 18696 18699 1
14960 18696 18700 1
14961 18701 18702 1
14962 18701 18703 1
14963 18701 18704 1
14964 18701 18705 1
14965 18706 18707 1
14966 18706 18708 1
14967 18706 18709 1
14968 18706 18710 1
14969 18711 18712 1
14970 18711 18713 1
14971 18711 18714 1
14972 18711 18715 1
14973 18716 18717 1
14974 18716 18718 1
14975 18716 18719 1
14976 18716 18720 1
14977 18721 18722 1
14978 18721 18723 1
14979 18721 18724 1
14980 18721 18725 1
14981 18726 18727 1
14982 18726 18728 1
14983 18726 18729 1
14984 18726 18730 1
14985 18731 18732 1
14986 18731 18733 1
14987 18731 18734 1
14988 18731 18735 1
14989 18736 18737 1
14990 18736 18738 1
14991 18736 18739 1
14992 18736 18740 1
14993 18741 18742 1
14994 18741 18743 1
14995 18741 18744 1
14996 18741 18745 1
14997 18746 18747 1
14998 18746 18748 1
14999 18746 18749 1
15000 18746 18750 1
15001 18751 18753 1
15002 18751 18754 1
15003 18751 18755 1
15004 18751 18752 1
15005 18756 18757 1
15006 18756 18758 1
15007 18756 18759 1
15008 18756 18760 1
15009 18761 18762 1
15010 18761 18763 1
15011 18761 18764 1
15012 18761 18765 1
15013 18766 18767 1
15014 18766 18768 1
15015 18766 18769 1
15016 18766 18770 1
15017 18771 18772 1
15018 18771 18773 1
15019 18771 18774 1
15020 18771 18775 1
15021 18776 18777 1
15022 18776 18778 1
15023 18776 18779 1
15024 18776 18780 1
15025 18781 18782 1
15026 18781 18783 1
15027 18781 18784 1
15028 18781 18785 1
15029 18786 18787 1
15030 18786 18788 1
15031 18786 18789 1
15032 18786 18790 1
15033 18791 18792 1
15034 18791 18793 1
15035 18791 18794 1
15036 18791 18795 1
15037 18796 18797 1
15038 18796 18798 1
15039 18796 18799 1
15040 18796 18800 1
15041 18801 18802 1
15042 18801 18803 1
15043 18801 18804 1
15044 18801 18805 1
15045 18806 18807 1
15046 18806 18808 1
15047 18806 18809 1
15048 18806 18810 1
15049 18811 18812 1
15050 18811 18813 1
15051 18811 18814 1
15052 18811 18815 1
15053 18816 18817 1
15054 18816 18818 1
15055 18816 18819 1
15056 18816 18820 1
15057 18821 18822 1
15058 18821 18823 1
15059 18821 18824 1
15060 18821 18825 1
15061 18826 18827 1
15062 18826 18828 1
15063 18826 18829 1
15064 18826 18830 1
15065 18831 18832 1
15066 18831 18833 1
15067 18831 18834 1
15068 18831 18835 1
15069 18836 18837 1
15070 18836 18838 1
15071 18836 18839 1
15072 18836 18840 1
15073 18841 18842 1
15074 18841 18843 1
15075 18841 18844 1
15076 18841 18845 1
15077 18846 18847 1
15078 18846 18848 1
15079 18846 18849 1
15080 18846 18850 1
15081 18851 18852 1
15082 18851 18853 1
15083 18851 18854 1
15084 18851 18855 1
15085 18856 18857 1
15086 18856 18858 1
15087 18856 18859 1
15088 18856 18860 1
15089 18861 18862 1
15090 18861 18863 1
15091 18861 18864 1
15092 18861 18865 1
15093 18866 18867 1
15094 18866 18868 1
15095 18866 18869 1
15096 18866 18870 1
15097 18871 18872 1
15098 18871 18873 1
15099 18871 18874 1
15100 18871 18875 1
15101 18876 18879 1
15102 18876 18880 1
15103 18876 18877 1
15104 18876 18878 1
15105 18881 18882 1
15106 18881 18883 1
15107 18881 18884 1
15108 18881 18885 1
15109 18886 18887 1
15110 18886 18888 1
15111 18886 18889 1
15112 18886 18890 1
15113 18891 18892 1
15114 18891 18893 1
15115 18891 18894 1
15116 18891 18895 1
15117 18896 18897 1
15118 18896 18898 1
15119 18896 18899 1
15120 18896 18900 1
15121 18901 18902 1
15122 18901 18903 1
15123 18901 18904 1
15124 18901 18905 1
15125 18906 18907 1
15126 18906 18908 1
15127 18906 18909 1
15128 18906 18910 1
15129 18911 18912 1
15130 18911 18913 1
15131 18911 18914 1
15132 18911 18915 1
15133 18916 18917 1
15134 18916 18918 1
15135 18916 18919 1
15136 18916 18920 1
15137 18921 18922 1
15138 18921 18923 1
15139 18921 18924 1
15140 18921 18925 1
15141 18926 18927 1
15142 18926 18928 1
15143 18926 18929 1
15144 18926 18930 1
15145 18931 18932 1
15146 18931 18933 1
15147 18931 18934 1
15148 18931 18935 1
15149 18936 18937 1
15150 18936 18938 1
15151 18936 18939 1
15152 18936 18940 1
15153 18941 18942 1
15154 18941 18943 1
15155 18941 18944 1
15156 18941 18945 1
15157 18946 18947 1
15158 18946 18948 1
15159 18946 18949 1
15160 18946 18950 1
15161 18951 18952 1
15162 18951 18953 1
15163 18951 18954 1
15164 18951 18955 1
15165 18956 18960 1
15166 18956 18957 1
15167 18956 18958 1
15168 18956 18959 1
15169 18961 18963 1
15170 18961 18964 1
15171 18961 18965 1
15172 18961 18962 1
15173 18966 18967 1
15174 18966 18968 1
15175 18966 18969 1
15176 18966 18970 1
15177 18971 18972 1
15178 18971 18973 1
15179 18971 18974 1
15180 18971 18975 1
15181 18976 18977 1
15182 18976 18978 1
15183 18976 18979 1
15184 18976 18980 1
15185 18981 18982 1
15186 18981 18983 1
15187 18981 18984 1
15188 18981 18985 1
15189 18986 18987 1
15190 18986 18988 1
15191 18986 18989 1
15192 18986 18990 1
15193 18991 18992 1
15194 18991 18993 1
15195 18991 18994 1
15196 18991 18995 1
15197 18996 18997 1
15198 18996 18998 1
15199 18996 18999 1
15200 18996 19000 1
15201 19001 19002 1
15202 19001 19003 1
15203 19001 19004 1
15204 19001 19005 1
15205 19006 19007 1
15206 19006 19008 1
15207 19006 19009 1
15208 19006 19010 1
15209 19011 19012 1
15210 19011 19013 1
15211 19011 19014 1
15212 19011 19015 1
15213 19016 19017 1
15214 19016 19018 1
15215 19016 19019 1
15216 19016 19020 1
15217 19021 19022 1
15218 19021 19023 1
15219 19021 19024 1
15220 19021 19025 1
15221 19026 19027 1
15222 19026 19028 1
15223 19026 19029 1
15224 19026 19030 1
15225 19031 19032 1
15226 19031 19033 1
15227 19031 19034 1
15228 19031 19035 1
15229 19036 19037 1
15230 19036 19038 1
15231 19036 19039 1
15232 19036 19040 1
15233 19041 19045 1
15234 19041 19042 1
15235 19041 19043 1
15236 19041 19044 1
15237 19046 19047 1
15238 19046 19048 1
15239 19046 19049 1
15240 19046 19050 1
15241 19051 19052 1
15242 19051 19053 1
15243 19051 19054 1
15244 19051 19055 1
15245 19056 19057 1
15246 19056 19058 1
15247 19056 19059 1
15248 19056 19060 1
15249 19061 19062 1
15250 19061 19063 1
15251 19061 19064 1
15252 19061 19065 1
15253 19066 19067 1
15254 19066 19068 1
15255 19066 19069 1
15256 19066 19070 1
15257 19071 19072 1
15258 19071 19073 1
15259 19071 19074 1
15260 19071 19075 1
15261 19076 19077 1
15262 19076 19078 1
15263 19076 19079 1
15264 19076 19080 1
15265 19081 19082 1
15266 19081 19083 1
15267 19081 19084 1
15268 19081 19085 1
15269 19086 19087 1
15270 19086 19088 1
15271 19086 19089 1
15272 19086 19090 1
15273 19091 19092 1
15274 19091 19093 1
15275 19091 19094 1
15276 19091 19095 1
15277 19096 19097 1
15278 19096 19098 1
15279 19096 19099 1
15280 19096 19100 1
15281 19101 19102 1
15282 19101 19103 1
15283 19101 19104 1
15284 19101 19105 1
15285 19106 19107 1
15286 19106 19108 1
15287 19106 19109 1
15288 19106 19110 1
15289 19111 19112 1
15290 19111 19113 1
15291 19111 19114 1
15292 19111 19115 1
15293 19116 19117 1
15294 19116 19118 1
15295 19116 19119 1
15296 19116 19120 1
15297 19121 19122 1
15298 19121 19123 1
15299 19121 19124 1
15300 19121 19125 1
15301 19126 19127 1
15302 19126 19128 1
15303 19126 19129 1
15304 19126 19130 1
15305 19131 19132 1
15306 19131 19133 1
15307 19131 19134 1
15308 19131 19135 1
15309 19136 19137 1
15310 19136 19138 1
15311 19136 19139 1
15312 19136 19140 1
15313 19141 19142 1
15314 19141 19143 1
15315 19141 19144 1
15316 19141 19145 1
15317 19146 19147 1
15318 19146 19148 1
15319 19146 19149 1
15320 19146 19150 1
15321 19151 19152 1
15322 19151 19153 1
15323 19151 19154 1
15324 19151 19155 1
15325 19156 19157 1
15326 19156 19158 1
15327 19156 19159 1
15328 19156 19160 1
15329 19161 19163 1
15330 19161 19162 1
15331 19161 19164 1
15332 19161 19165 1
15333 19166 19167 1
15334 19166 19168 1
15335 19166 19169 1
15336 19166 19170 1
15337 19171 19172 1
15338 19171 19173 1
15339 19171 19174 1
15340 19171 19175 1
15341 19176 19177 1
15342 19176 19178 1
15343 19176 19179 1
15344 19176 19180 1
15345 19181 19182 1
15346 19181 19183 1
15347 19181 19184 1
15348 19181 19185 1
15349 19186 19187 1
15350 19186 19188 1
15351 19186 19189 1
15352 19186 19190 1
15353 19191 19192 1
15354 19191 19193 1
15355 19191 19194 1
15356 19191 19195 1
15357 19196 19197 1
15358 19196 19198 1
15359 19196 19199 1
15360 19196 19200 1
15361 19201 19202 1
15362 19201 19203 1
15363 19201 19204 1
15364 19201 19205 1
15365 19206 19207 1
15366 19206 19208 1
15367 19206 19209 1
15368 19206 19210 1
15369 19211 19212 1
15370 19211 19213 1
15371 19211 19214 1
15372 19211 19215 1
15373 19216 19217 1
15374 19216 19218 1
15375 19216 19219 1
15376 19216 19220 1
15377 19221 19222 1
15378 19221 19223 1
15379 19221 19224 1
15380 19221 19225 1
15381 19226 19227 1
15382 19226 19228 1
15383 19226 19229 1
15384 19226 19230 1
15385 19231 19232 1
15386 19231 19233 1
15387 19231 19234 1
15388 19231 19235 1
15389 19236 19237 1
15390 19236 19238 1
15391 19236 19239 1
15392 19236 19240 1
15393 19241 19242 1
15394 19241 19243 1
15395 19241 19244 1
15396 19241 19245 1
15397 19246 19247 1
15398 19246 19248 1
15399 19246 19249 1
15400 19246 19250 1
15401 19251 19252 1
15402 19251 19253 1
15403 19251 19254 1
15404 19251 19255 1
15405 19256 19257 1
15406 19256 19258 1
15407 19256 19259 1
15408 19256 19260 1
15409 19261 19262 1
15410 19261 19263 1
15411 19261 19264 1
15412 19261 19265 1
15413 19266 19267 1
15414 19266 19268 1
15415 19266 19269 1
15416 19266 19270 1
15417 19271 19272 1
15418 19271 19273 1
15419 19271 19274 1
15420 19271 19275 1
15421 19276 19277 1
15422 19276 19278 1
15423 19276 19279 1
15424 19276 19280 1
15425 19281 19282 1
15426 19281 19283 1
15427 19281 19284 1
15428 19281 19285 1
15429 19286 19287 1
15430 19286 19288 1
15431 19286 19289 1
15432 19286 19290 1
15433 19291 19292 1
15434 19291 19293 1
15435 19291 19294 1
15436 19291 19295 1
15437 19296 19298 1
15438 19296 19299 1
15439 19296 19300 1
15440 19296 19297 1
15441 19301 19302 1
15442 19301 19303 1
15443 19301 19304 1
15444 19301 19305 1
15445 19306 19307 1
15446 19306 19308 1
15447 19306 19309 1
15448 19306 19310 1
15449 19311 19312 1
15450 19311 19313 1
15451 19311 19314 1
15452 19311 19315 1
15453 19316 19317 1
15454 19316 19318 1
15455 19316 19319 1
15456 19316 19320 1
15457 19321 19322 1
15458 19321 19323 1
15459 19321 19324 1
15460 19321 19325 1
15461 19326 19327 1
15462 19326 19328 1
15463 19326 19329 1
15464 19326 19330 1
15465 19331 19332 1
15466 19331 19333 1
15467 19331 19334 1
15468 19331 19335 1
15469 19336 19337 1
15470 19336 19338 1
15471 19336 19339 1
15472 19336 19340 1
15473 19341 19342 1
15474 19341 19343 1
15475 19341 19344 1
15476 19341 19345 1
15477 19346 19347 1
15478 19346 19348 1
15479 19346 19349 1
15480 19346 19350 1
15481 19351 19352 1
15482 19351 19353 1
15483 19351 19354 1
15484 19351 19355 1
15485 19356 19357 1
15486 19356 19358 1
15487 19356 19359 1
15488 19356 19360 1
15489 19361 19362 1
15490 19361 19363 1
15491 19361 19364 1
15492 19361 19365 1
15493 19366 19367 1
15494 19366 19368 1
15495 19366 19369 1
15496 19366 19370 1
15497 19371 19372 1
15498 19371 19373 1
15499 19371 19374 1
15500 19371 19375 1
15501 19376 19377 1
15502 19376 19378 1
15503 19376 19379 1
15504 19376 19380 1
15505 19381 19383 1
15506 19381 19384 1
15507 19381 19385 1
15508 19381 19382 1
15509 19386 19387 1
15510 19386 19388 1
15511 19386 19389 1
15512 19386 19390 1
15513 19391 19392 1
15514 19391 19393 1
15515 19391 19394 1
15516 19391 19395 1
15517 19396 19397 1
15518 19396 19398 1
15519 19396 19399 1
15520 19396 19400 1
15521 19401 19402 1
15522 19401 19403 1
15523 19401 19404 1
15524 19401 19405 1
15525 19406 19407 1
15526 19406 19408 1
15527 19406 19409 1
15528 19406 19410 1
15529 19411 19412 1
15530 19411 19413 1
15531 19411 19414 1
15532 19411 19415 1
15533 19416 19417 1
15534 19416 19418 1
15535 19416 19419 1
15536 19416 19420 1
15537 19421 19422 1
15538 19421 19423 1
15539 19421 19424 1
15540 19421 19425 1
15541 19426 19427 1
15542 19426 19428 1
15543 19426 19429 1
15544 19426 19430 1
15545 19431 19432 1
15546 19431 19433 1
15547 19431 19434 1
15548 19431 19435 1
15549 19436 19437 1
15550 19436 19438 1
15551 19436 19439 1
15552 19436 19440 1
15553 19441 19442 1
15554 19441 19443 1
15555 19441 19444 1
15556 19441 19445 1
15557 19446 19447 1
15558 19446 19448 1
15559 19446 19449 1
15560 19446 19450 1
15561 19451 19452 1
15562 19451 19453 1
15563 19451 19454 1
15564 19451 19455 1
15565 19456 19457 1
15566 19456 19458 1
15567 19456 19459 1
15568 19456 19460 1
15569 19461 19462 1
15570 19461 19463 1
15571 19461 19464 1
15572 19461 19465 1
15573 19466 19467 1
15574 19466 19468 1
15575 19466 19469 1
15576 19466 19470 1
15577 19471 19472 1
15578 19471 19473 1
15579 19471 19474 1
15580 19471 19475 1
15581 19476 19477 1
15582 19476 19478 1
15583 19476 19479 1
15584 19476 19480 1
15585 19481 19482 1
15586 19481 19483 1
15587 19481 19484 1
15588 19481 19485 1
15589 19486 19487 1
15590 19486 19488 1
15591 19486 19489 1
15592 19486 19490 1
15593 19491 19492 1
15594 19491 19493 1
15595 19491 19494 1
15596 19491 19495 1
15597 19496 19497 1
15598 19496 19498 1
15599 19496 19499 1
15600 19496 19500 1
15601 19501 19502 1
15602 19501 19503 1
15603 19501 19504 1
15604 19501 19505 1
15605 19506 19507 1
15606 19506 19508 1
15607 19506 19509 1
15608 19506 19510 1
15609 19511 19512 1
15610 19511 19513 1
15611 19511 19514 1
15612 19511 19515 1
15613 19516 19517 1
15614 19516 19518 1
15615 19516 19519 1
15616 19516 19520 1
15617 19521 19522 1
15618 19521 19523 1
15619 19521 19524 1
15620 19521 19525 1
15621 19526 19527 1
15622 19526 19528 1
15623 19526 19529 1
15624 19526 19530 1
15625 19531 19532 1
15626 19531 19533 1
15627 19531 19534 1
15628 19531 19535 1
15629 19536 19537 1
15630 19536 19538 1
15631 19536 19539 1
15632 19536 19540 1
15633 19541 19542 1
15634 19541 19543 1
15635 19541 19544 1
15636 19541 19545 1
15637 19546 19547 1
15638 19546 19548 1
15639 19546 19549 1
15640 19546 19550 1
15641 19551 19552 1
15642 19551 19553 1
15643 19551 19554 1
15644 19551 19555 1
15645 19556 19557 1
15646 19556 19558 1
15647 19556 19559 1
15648 19556 19560 1
15649 19561 19562 1
15650 19561 19563 1
15651 19561 19564 1
15652 19561 19565 1
15653 19566 19567 1
15654 19566 19568 1
15655 19566 19569 1
15656 19566 19570 1
15657 19571 19572 1
15658 19571 19573 1
15659 19571 19574 1
15660 19571 19575 1
15661 19576 19577 1
15662 19576 19578 1
15663 19576 19579 1
15664 19576 19580 1
15665 19581 19582 1
15666 19581 19583 1
15667 19581 19584 1
15668 19581 19585 1
15669 19586 19587 1
15670 19586 19588 1
15671 19586 19589 1
15672 19586 19590 1
15673 19591 19592 1
15674 19591 19593 1
15675 19591 19594 1
15676 19591 19595 1
15677 19596 19597 1
15678 19596 19598 1
15679 19596 19599 1
15680 19596 19600 1
15681 19601 19602 1
15682 19601 19603 1
15683 19601 19604 1
15684 19601 19605 1
15685 19606 19607 1
15686 19606 19608 1
15687 19606 19609 1
15688 19606 19610 1
15689 19611 19612 1
15690 19611 19613 1
15691 19611 19614 1
15692 19611 19615 1
15693 19616 19617 1
15694 19616 19618 1
15695 19616 19619 1
15696 19616 19620 1
15697 19621 19622 1
15698 19621 19623 1
15699 19621 19624 1
15700 19621 19625 1
15701 19626 19627 1
15702 19626 19628 1
15703 19626 19629 1
15704 19626 19630 1
15705 19631 19635 1
15706 19631 19632 1
15707 19631 19633 1
15708 19631 19634 1
15709 19636 19637 1
15710 19636 19638 1
15711 19636 19639 1
15712 19636 19640 1
15713 19641 19642 1
15714 19641 19643 1
15715 19641 19644 1
15716 19641 19645 1
15717 19646 19647 1
15718 19646 19648 1
15719 19646 19649 1
15720 19646 19650 1
15721 19651 19652 1
15722 19651 19653 1
15723 19651 19654 1
15724 19651 19655 1
15725 19656 19657 1
15726 19656 19658 1
15727 19656 19659 1
15728 19656 19660 1
15729 19661 19662 1
15730 19661 19663 1
15731 19661 19664 1
15732 19661 19665 1
15733 19666 19667 1
15734 19666 19668 1
15735 19666 19669 1
15736 19666 19670 1
15737 19671 19672 1
15738 19671 19673 1
15739 19671 19674 1
15740 19671 19675 1
15741 19676 19677 1
15742 19676 19678 1
15743 19676 19679 1
15744 19676 19680 1
15745 19681 19682 1
15746 19681 19683 1
15747 19681 19684 1
15748 19681 19685 1
15749 19686 19687 1
15750 19686 19688 1
15751 19686 19689 1
15752 19686 19690 1
15753 19691 19692 1
15754 19691 19693 1
15755 19691 19694 1
15756 19691 19695 1
15757 19696 19697 1
15758 19696 19698 1
15759 19696 19699 1
15760 19696 19700 1
15761 19701 19702 1
15762 19701 19703 1
15763 19701 19704 1
15764 19701 19705 1
15765 19706 19707 1
15766 19706 19708 1
15767 19706 19709 1
15768 19706 19710 1
15769 19711 19712 1
15770 19711 19713 1
15771 19711 19714 1
15772 19711 19715 1
15773 19716 19717 1
15774 19716 19718 1
15775 19716 19719 1
15776 19716 19720 1
15777 19721 19722 1
15778 19721 19723 1
15779 19721 19724 1
15780 19721 19725 1
15781 19726 19727 1
15782 19726 19728 1
15783 19726 19729 1
15784 19726 19730 1
15785 19731 19732 1
15786 19731 19733 1
15787 19731 19734 1
15788 19731 19735 1
15789 19736 19737 1
15790 19736 19738 1
15791 19736 19739 1
15792 19736 19740 1
15793 19741 19742 1
15794 19741 19743 1
15795 19741 19744 1
15796 19741 19745 1
15797 19746 19747 1
15798 19746 19748 1
15799 19746 19749 1
15800 19746 19750 1
15801 19751 19752 1
15802 19751 19753 1
15803 19751 19754 1
15804 19751 19755 1
15805 19756 19757 1
15806 19756 19758 1
15807 19756 19759 1
15808 19756 19760 1
15809 19761 19762 1
15810 19761 19763 1
15811 19761 19764 1
15812 19761 19765 1
15813 19766 19767 1
15814 19766 19768 1
15815 19766 19769 1
15816 19766 19770 1
15817 19771 19772 1
15818 19771 19773 1
15819 19771 19774 1
15820 19771 19775 1
15821 19776 19777 1
15822 19776 19778 1
15823 19776 19779 1
15824 19776 19780 1
15825 19781 19782 1
15826 19781 19783 1
15827 19781 19784 1
15828 19781 19785 1
15829 19786 19787 1
15830 19786 19788 1
15831 19786 19789 1
15832 19786 19790 1
15833 19791 19792 1
15834 19791 19793 1
15835 19791 19794 1
15836 19791 19795 1
15837 19796 19797 1
15838 19796 19798 1
15839 19796 19799 1
15840 19796 19800 1
15841 19801 19802 1
15842 19801 19803 1
15843 19801 19804 1
15844 19801 19805 1
15845 19806 19807 1
15846 19806 19808 1
15847 19806 19809 1
15848 19806 19810 1
15849 19811 19812 1
15850 19811 19813 1
15851 19811 19814 1
15852 19811 19815 1
15853 19816 19817 1
15854 19816 19818 1
15855 19816 19819 1
15856 19816 19820 1
15857 19821 19822 1
15858 19821 19823 1
15859 19821 19824 1
15860 19821 19825 1
15861 19826 19827 1
15862 19826 19828 1
15863 19826 19829 1
15864 19826 19830 1
15865 19831 19832 1
15866 19831 19833 1
15867 19831 19834 1
15868 19831 19835 1
15869 19836 19837 1
15870 19836 19838 1
15871 19836 19839 1
15872 19836 19840 1
15873 19841 19842 1
15874 19841 19843 1
15875 19841 19844 1
15876 19841 19845 1
15877 19846 19847 1
15878 19846 19848 1
15879 19846 19849 1
15880 19846 19850 1
15881 19851 19852 1
15882 19851 19853 1
15883 19851 19854 1
15884 19851 19855 1
15885 19856 19857 1
15886 19856 19858 1
15887 19856 19859 1
15888 19856 19860 1
15889 19861 19862 1
15890 19861 19863 1
15891 19861 19864 1
15892 19861 19865 1
15893 19866 19867 1
15894 19866 19868 1
15895 19866 19869 1
15896 19866 19870 1
15897 19871 19872 1
15898 19871 19873 1
15899 19871 19874 1
15900 19871 19875 1
15901 19876 19877 1
15902 19876 19878 1
15903 19876 19880 1
15904 19876 19879 1
15905 19881 19882 1
15906 19881 19883 1
15907 19881 19884 1
15908 19881 19885 1
15909 19886 19887 1
15910 19886 19888 1
15911 19886 19889 1
15912 19886 19890 1
15913 19891 19892 1
15914 19891 19893 1
15915 19891 19894 1
15916 19891 19895 1
15917 19896 19897 1
15918 19896 19898 1
15919 19896 19899 1
15920 19896 19900 1
15921 19901 19902 1
15922 19901 19903 1
15923 19901 19904 1
15924 19901 19905 1
15925 19906 19907 1
15926 19906 19908 1
15927 19906 19909 1
15928 19906 19910 1
15929 19911 19912 1
15930 19911 19913 1
15931 19911 19914 1
15932 19911 19915 1
15933 19916 19917 1
15934 19916 19918 1
15935 19916 19919 1
15936 19916 19920 1
15937 19921 19922 1
15938 19921 19923 1
15939 19921 19924 1
15940 19921 19925 1
15941 19926 19927 1
15942 19926 19928 1
15943 19926 19929 1
15944 19926 19930 1
15945 19931 19932 1
15946 19931 19933 1
15947 19931 19934 1
15948 19931 19935 1
15949 19936 19937 1
15950 19936 19938 1
15951 19936 19939 1
15952 19936 19940 1
15953 19941 19942 1
15954 19941 19943 1
15955 19941 19944 1
15956 19941 19945 1
15957 19946 19947 1
15958 19946 19948 1
15959 19946 19949 1
15960 19946 19950 1
15961 19951 19952 1
15962 19951 19953 1
15963 19951 19954 1
15964 19951 19955 1
15965 19956 19957 1
15966 19956 19958 1
15967 19956 19959 1
15968 19956 19960 1
15969 19961 19962 1
15970 19961 19963 1
15971 19961 19964 1
15972 19961 19965 1
15973 19966 19969 1
15974 19966 19970 1
15975 19966 19967 1
15976 19966 19968 1
15977 19971 19972 1
15978 19971 19973 1
15979 19971 19974 1
15980 19971 19975 1
15981 19976 19977 1
15982 19976 19978 1
15983 19976 19979 1
15984 19976 19980 1
15985 19981 19982 1
15986 19981 19983 1
15987 19981 19984 1
15988 19981 19985 1
15989 19986 19987 1
15990 19986 19988 1
15991 19986 19989 1
15992 19986 19990 1
15993 19991 19992 1
15994 19991 19993 1
15995 19991 19994 1
15996 19991 19995 1
15997 19996 19997 1
15998 19996 19998 1
15999 19996 19999 1
16000 19996 20000 1
16001 20001 20002 1
16002 20001 20003 1
16003 20001 20004 1
16004 20001 20005 1
16005 20006 20007 1
16006 20006 20008 1
16007 20006 20009 1
16008 20006 20010 1
16009 20011 20013 1
16010 20011 20014 1
16011 20011 20015 1
16012 20011 20012 1
16013 20016 20017 1
16014 20016 20018 1
16015 20016 20019 1
16016 20016 20020 1
16017 20021 20022 1
16018 20021 20023 1
16019 20021 20024 1
16020 20021 20025 1
16021 20026 20027 1
16022 20026 20028 1
16023 20026 20029 1
16024 20026 20030 1
16025 20031 20032 1
16026 20031 20033 1
16027 20031 20034 1
16028 20031 20035 1
16029 20036 20037 1
16030 20036 20038 1
16031 20036 20039 1
16032 20036 20040 1
16033 20041 20042 1
16034 20041 20043 1
16035 20041 20044 1
16036 20041 20045 1
16037 20046 20047 1
16038 20046 20048 1
16039 20046 20049 1
16040 20046 20050 1
16041 20051 20055 1
16042 20051 20052 1
16043 20051 20053 1
16044 20051 20054 1
16045 20056 20057 1
16046 20056 20058 1
16047 20056 20059 1
16048 20056 20060 1
16049 20061 20062 1
16050 20061 20063 1
16051 20061 20064 1
16052 20061 20065 1
16053 20066 20067 1
16054 20066 20068 1
16055 20066 20069 1
16056 20066 20070 1
16057 20071 20072 1
16058 20071 20073 1
16059 20071 20074 1
16060 20071 20075 1
16061 20076 20077 1
16062 20076 20078 1
16063 20076 20079 1
16064 20076 20080 1
16065 20081 20082 1
16066 20081 20083 1
16067 20081 20084 1
16068 20081 20085 1
16069 20086 20087 1
16070 20086 20088 1
16071 20086 20089 1
16072 20086 20090 1
16073 20091 20092 1
16074 20091 20093 1
16075 20091 20094 1
16076 20091 20095 1
16077 20096 20097 1
16078 20096 20098 1
16079 20096 20099 1
16080 20096 20100 1
16081 20101 20102 1
16082 20101 20103 1
16083 20101 20104 1
16084 20101 20105 1
16085 20106 20107 1
16086 20106 20108 1
16087 20106 20109 1
16088 20106 20110 1
16089 20111 20112 1
16090 20111 20113 1
16091 20111 20114 1
16092 20111 20115 1
16093 20116 20117 1
16094 20116 20118 1
16095 20116 20119 1
16096 20116 20120 1
16097 20121 20122 1
16098 20121 20123 1
16099 20121 20124 1
16100 20121 20125 1
16101 20126 20127 1
16102 20126 20128 1
16103 20126 20129 1
16104 20126 20130 1
16105 20131 20132 1
16106 20131 20133 1
16107 20131 20134 1
16108 20131 20135 1
16109 20136 20139 1
16110 20136 20140 1
16111 20136 20137 1
16112 20136 20138 1
16113 20141 20142 1
16114 20141 20143 1
16115 20141 20144 1
16116 20141 20145 1
16117 20146 20147 1
16118 20146 20148 1
16119 20146 20149 1
16120 20146 20150 1
16121 20151 20152 1
16122 20151 20153 1
16123 20151 20154 1
16124 20151 20155 1
16125 20156 20157 1
16126 20156 20158 1
16127 20156 20159 1
16128 20156 20160 1
16129 20161 20162 1
16130 20161 20163 1
16131 20161 20164 1
16132 20161 20165 1
16133 20166 20167 1
16134 20166 20168 1
16135 20166 20169 1
16136 20166 20170 1
16137 20171 20172 1
16138 20171 20173 1
16139 20171 20174 1
16140 20171 20175 1
16141 20176 20177 1
16142 20176 20178 1
16143 20176 20179 1
16144 20176 20180 1
16145 20181 20182 1
16146 20181 20183 1
16147 20181 20184 1
16148 20181 20185 1
16149 20186 20187 1
16150 20186 20188 1
16151 20186 20189 1
16152 20186 20190 1
16153 20191 20192 1
16154 20191 20193 1
16155 20191 20194 1
16156 20191 20195 1
16157 20196 20197 1
16158 20196 20198 1
16159 20196 20199 1
16160 20196 20200 1
16161 20201 20202 1
16162 20201 20203 1
16163 20201 20204 1
16164 20201 20205 1
16165 20206 20207 1
16166 20206 20208 1
16167 20206 20209 1
16168 20206 20210 1
16169 20211 20212 1
16170 20211 20213 1
16171 20211 20214 1
16172 20211 20215 1
16173 20216 20217 1
16174 20216 20218 1
16175 20216 20219 1
16176 20216 20220 1
16177 20221 20222 1
16178 20221 20223 1
16179 20221 20224 1
16180 20221 20225 1
16181 20226 20227 1
16182 20226 20228 1
16183 20226 20229 1
16184 20226 20230 1
16185 20231 20232 1
16186 20231 20233 1
16187 20231 20234 1
16188 20231 20235 1
16189 20236 20237 1
16190 20236 20238 1
16191 20236 20239 1
16192 20236 20240 1
16193 20241 20242 1
16194 20241 20243 1
16195 20241 20244 1
16196 20241 20245 1
16197 20246 20247 1
16198 20246 20248 1
16199 20246 20249 1
16200 20246 20250 1
16201 20251 20252 1
16202 20251 20253 1
16203 20251 20254 1
16204 20251 20255 1
16205 20256 20257 1
16206 20256 20258 1
16207 20256 20259 1
16208 20256 20260 1
16209 20261 20262 1
16210 20261 20263 1
16211 20261 20264 1
16212 20261 20265 1
16213 20266 20267 1
16214 20266 20268 1
16215 20266 20269 1
16216 20266 20270 1
16217 20271 20272 1
16218 20271 20273 1
16219 20271 20274 1
16220 20271 20275 1
16221 20276 20277 1
16222 20276 20278 1
16223 20276 20279 1
16224 20276 20280 1
16225 20281 20282 1
16226 20281 20283 1
16227 20281 20284 1
16228 20281 20285 1
16229 20286 20287 1
16230 20286 20288 1
16231 20286 20289 1
16232 20286 20290 1
16233 20291 20292 1
16234 20291 20293 1
16235 20291 20294 1
16236 20291 20295 1
16237 20296 20297 1
16238 20296 20298 1
16239 20296 20299 1
16240 20296 20300 1
16241 20301 20304 1
16242 20301 20302 1
16243 20301 20303 1
16244 20301 20305 1
16245 20306 20307 1
16246 20306 20308 1
16247 20306 20309 1
16248 20306 20310 1
16249 20311 20312 1
16250 20311 20313 1
16251 20311 20314 1
16252 20311 20315 1
16253 20316 20317 1
16254 20316 20318 1
16255 20316 20319 1
16256 20316 20320 1
16257 20321 20322 1
16258 20321 20323 1
16259 20321 20324 1
16260 20321 20325 1
16261 20326 20327 1
16262 20326 20328 1
16263 20326 20329 1
16264 20326 20330 1
16265 20331 20332 1
16266 20331 20333 1
16267 20331 20334 1
16268 20331 20335 1
16269 20336 20337 1
16270 20336 20338 1
16271 20336 20339 1
16272 20336 20340 1
16273 20341 20342 1
16274 20341 20343 1
16275 20341 20344 1
16276 20341 20345 1
16277 20346 20347 1
16278 20346 20348 1
16279 20346 20349 1
16280 20346 20350 1
16281 20351 20352 1
16282 20351 20353 1
16283 20351 20354 1
16284 20351 20355 1
16285 20356 20357 1
16286 20356 20358 1
16287 20356 20359 1
16288 20356 20360 1
16289 20361 20362 1
16290 20361 20363 1
16291 20361 20364 1
16292 20361 20365 1
16293 20366 20367 1
16294 20366 20368 1
16295 20366 20369 1
16296 20366 20370 1
16297 20371 20372 1
16298 20371 20373 1
16299 20371 20374 1
16300 20371 20375 1
16301 20376 20377 1
16302 20376 20378 1
16303 20376 20379 1
16304 20376 20380 1
16305 20381 20382 1
16306 20381 20383 1
16307 20381 20384 1
16308 20381 20385 1
16309 20386 20390 1
16310 20386 20387 1
16311 20386 20388 1
16312 20386 20389 1
16313 20391 20392 1
16314 20391 20393 1
16315 20391 20394 1
16316 20391 20395 1
16317 20396 20397 1
16318 20396 20398 1
16319 20396 20399 1
16320 20396 20400 1
16321 20401 20402 1
16322 20401 20403 1
16323 20401 20404 1
16324 20401 20405 1
16325 20406 20407 1
16326 20406 20408 1
16327 20406 20409 1
16328 20406 20410 1
16329 20411 20412 1
16330 20411 20413 1
16331 20411 20414 1
16332 20411 20415 1
16333 20416 20417 1
16334 20416 20418 1
16335 20416 20419 1
16336 20416 20420 1
16337 20421 20422 1
16338 20421 20423 1
16339 20421 20424 1
16340 20421 20425 1
16341 20426 20427 1
16342 20426 20428 1
16343 20426 20429 1
16344 20426 20430 1
16345 20431 20432 1
16346 20431 20433 1
16347 20431 20434 1
16348 20431 20435 1
16349 20436 20437 1
16350 20436 20438 1
16351 20436 20439 1
16352 20436 20440 1
16353 20441 20442 1
16354 20441 20443 1
16355 20441 20444 1
16356 20441 20445 1
16357 20446 20447 1
16358 20446 20448 1
16359 20446 20449 1
16360 20446 20450 1
16361 20451 20452 1
16362 20451 20453 1
16363 20451 20454 1
16364 20451 20455 1
16365 20456 20457 1
16366 20456 20458 1
16367 20456 20459 1
16368 20456 20460 1
16369 20461 20462 1
16370 20461 20463 1
16371 20461 20464 1
16372 20461 20465 1
16373 20466 20467 1
16374 20466 20468 1
16375 20466 20469 1
16376 20466 20470 1
16377 20471 20475 1
16378 20471 20472 1
16379 20471 20473 1
16380 20471 20474 1
16381 20476 20477 1
16382 20476 20478 1
16383 20476 20479 1
16384 20476 20480 1
16385 20481 20482 1
16386 20481 20483 1
16387 20481 20484 1
16388 20481 20485 1
16389 20486 20487 1
16390 20486 20488 1
16391 20486 20489 1
16392 20486 20490 1
16393 20491 20492 1
16394 20491 20493 1
16395 20491 20494 1
16396 20491 20495 1
16397 20496 20497 1
16398 20496 20498 1
16399 20496 20499 1
16400 20496 20500 1
16401 20501 20502 1
16402 20501 20503 1
16403 20501 20504 1
16404 20501 20505 1
16405 20506 20507 1
16406 20506 20508 1
16407 20506 20509 1
16408 20506 20510 1
16409 20511 20512 1
16410 20511 20513 1
16411 20511 20514 1
16412 20511 20515 1
16413 20516 20517 1
16414 20516 20518 1
16415 20516 20519 1
16416 20516 20520 1
16417 20521 20522 1
16418 20521 20523 1
16419 20521 20524 1
16420 20521 20525 1
16421 20526 20527 1
16422 20526 20528 1
16423 20526 20529 1
16424 20526 20530 1
16425 20531 20532 1
16426 20531 20533 1
16427 20531 20534 1
16428 20531 20535 1
16429 20536 20537 1
16430 20536 20538 1
16431 20536 20539 1
16432 20536 20540 1
16433 20541 20542 1
16434 20541 20543 1
16435 20541 20544 1
16436 20541 20545 1
16437 20546 20547 1
16438 20546 20548 1
16439 20546 20549 1
16440 20546 20550 1
16441 20551 20552 1
16442 20551 20553 1
16443 20551 20554 1
16444 20551 20555 1
16445 20556 20559 1
16446 20556 20560 1
16447 20556 20557 1
16448 20556 20558 1
16449 20561 20562 1
16450 20561 20563 1
16451 20561 20564 1
16452 20561 20565 1
16453 20566 20567 1
16454 20566 20568 1
16455 20566 20569 1
16456 20566 20570 1
16457 20571 20572 1
16458 20571 20573 1
16459 20571 20574 1
16460 20571 20575 1
16461 20576 20577 1
16462 20576 20578 1
16463 20576 20579 1
16464 20576 20580 1
16465 20581 20582 1
16466 20581 20583 1
16467 20581 20584 1
16468 20581 20585 1
16469 20586 20587 1
16470 20586 20588 1
16471 20586 20589 1
16472 20586 20590 1
16473 20591 20592 1
16474 20591 20593 1
16475 20591 20594 1
16476 20591 20595 1
16477 20596 20597 1
16478 20596 20598 1
16479 20596 20599 1
16480 20596 20600 1
16481 20601 20602 1
16482 20601 20603 1
16483 20601 20604 1
16484 20601 20605 1
16485 20606 20607 1
16486 20606 20608 1
16487 20606 20609 1
16488 20606 20610 1
16489 20611 20612 1
16490 20611 20613 1
16491 20611 20614 1
16492 20611 20615 1
16493 20616 20617 1
16494 20616 20618 1
16495 20616 20619 1
16496 20616 20620 1
16497 20621 20622 1
16498 20621 20623 1
16499 20621 20624 1
16500 20621 20625 1
16501 20626 20627 1
16502 20626 20628 1
16503 20626 20629 1
16504 20626 20630 1
16505 20631 20632 1
16506 20631 20633 1
16507 20631 20634 1
16508 20631 20635 1
16509 20636 20637 1
16510 20636 20638 1
16511 20636 20639 1
16512 20636 20640 1
16513 20641 20643 1
16514 20641 20644 1
16515 20641 20645 1
16516 20641 20642 1
16517 20646 20648 1
16518 20646 20647 1
16519 20646 20649 1
16520 20646 20650 1
16521 20651 20652 1
16522 20651 20653 1
16523 20651 20654 1
16524 20651 20655 1
16525 20656 20657 1
16526 20656 20658 1
16527 20656 20659 1
16528 20656 20660 1
16529 20661 20662 1
16530 20661 20663 1
16531 20661 20664 1
16532 20661 20665 1
16533 20666 20667 1
16534 20666 20668 1
16535 20666 20669 1
16536 20666 20670 1
16537 20671 20672 1
16538 20671 20673 1
16539 20671 20674 1
16540 20671 20675 1
16541 20676 20677 1
16542 20676 20678 1
16543 20676 20679 1
16544 20676 20680 1
16545 20681 20682 1
16546 20681 20683 1
16547 20681 20684 1
16548 20681 20685 1
16549 20686 20687 1
16550 20686 20688 1
16551 20686 20689 1
16552 20686 20690 1
16553 20691 20692 1
16554 20691 20693 1
16555 20691 20694 1
16556 20691 20695 1
16557 20696 20697 1
16558 20696 20698 1
16559 20696 20699 1
16560 20696 20700 1
16561 20701 20702 1
16562 20701 20703 1
16563 20701 20704 1
16564 20701 20705 1
16565 20706 20707 1
16566 20706 20708 1
16567 20706 20709 1
16568 20706 20710 1
16569 20711 20712 1
16570 20711 20713 1
16571 20711 20714 1
16572 20711 20715 1
16573 20716 20717 1
16574 20716 20718 1
16575 20716 20719 1
16576 20716 20720 1
16577 20721 20722 1
16578 20721 20723 1
16579 20721 20724 1
16580 20721 20725 1
16581 20726 20727 1
16582 20726 20728 1
16583 20726 20729 1
16584 20726 20730 1
16585 20731 20732 1
16586 20731 20733 1
16587 20731 20734 1
16588 20731 20735 1
16589 20736 20737 1
16590 20736 20738 1
16591 20736 20739 1
16592 20736 20740 1
16593 20741 20742 1
16594 20741 20743 1
16595 20741 20744 1
16596 20741 20745 1
16597 20746 20747 1
16598 20746 20748 1
16599 20746 20749 1
16600 20746 20750 1
16601 20751 20752 1
16602 20751 20753 1
16603 20751 20754 1
16604 20751 20755 1
16605 20756 20757 1
16606 20756 20758 1
16607 20756 20759 1
16608 20756 20760 1
16609 20761 20762 1
16610 20761 20763 1
16611 20761 20764 1
16612 20761 20765 1
16613 20766 20767 1
16614 20766 20768 1
16615 20766 20769 1
16616 20766 20770 1
16617 20771 20772 1
16618 20771 20773 1
16619 20771 20774 1
16620 20771 20775 1
16621 20776 20777 1
16622 20776 20778 1
16623 20776 20779 1
16624 20776 20780 1
16625 20781 20782 1
16626 20781 20783 1
16627 20781 20784 1
16628 20781 20785 1
16629 20786 20787 1
16630 20786 20788 1
16631 20786 20789 1
16632 20786 20790 1
16633 20791 20792 1
16634 20791 20793 1
16635 20791 20794 1
16636 20791 20795 1
16637 20796 20797 1
16638 20796 20798 1
16639 20796 20799 1
16640 20796 20800 1
16641 20801 20802 1
16642 20801 20803 1
16643 20801 20804 1
16644 20801 20805 1
16645 20806 20809 1
16646 20806 20810 1
16647 20806 20807 1
16648 20806 20808 1
16649 20811 20812 1
16650 20811 20813 1
16651 20811 20814 1
16652 20811 20815 1
16653 20816 20817 1
16654 20816 20818 1
16655 20816 20819 1
16656 20816 20820 1
16657 20821 20822 1
16658 20821 20823 1
16659 20821 20824 1
16660 20821 20825 1
16661 20826 20827 1
16662 20826 20828 1
16663 20826 20829 1
16664 20826 20830 1
16665 20831 20832 1
16666 20831 20833 1
16667 20831 20834 1
16668 20831 20835 1
16669 20836 20837 1
16670 20836 20838 1
16671 20836 20839 1
16672 20836 20840 1
16673 20841 20842 1
16674 20841 20843 1
16675 20841 20844 1
16676 20841 20845 1
16677 20846 20847 1
16678 20846 20848 1
16679 20846 20849 1
16680 20846 20850 1
16681 20851 20852 1
16682 20851 20853 1
16683 20851 20854 1
16684 20851 20855 1
16685 20856 20857 1
16686 20856 20858 1
16687 20856 20859 1
16688 20856 20860 1
16689 20861 20862 1
16690 20861 20863 1
16691 20861 20864 1
16692 20861 20865 1
16693 20866 20867 1
16694 20866 20868 1
16695 20866 20869 1
16696 20866 20870 1
16697 20871 20872 1
16698 20871 20873 1
16699 20871 20874 1
16700 20871 20875 1
16701 20876 20877 1
16702 20876 20878 1
16703 20876 20879 1
16704 20876 20880 1
16705 20881 20882 1
16706 20881 20883 1
16707 20881 20884 1
16708 20881 20885 1
16709 20886 20887 1
16710 20886 20888 1
16711 20886 20889 1
16712 20886 20890 1
16713 20891 20894 1
16714 20891 20895 1
16715 20891 20892 1
16716 20891 20893 1
16717 20896 20897 1
16718 20896 20898 1
16719 20896 20899 1
16720 20896 20900 1
16721 20901 20902 1
16722 20901 20903 1
16723 20901 20904 1
16724 20901 20905 1
16725 20906 20907 1
16726 20906 20908 1
16727 20906 20909 1
16728 20906 20910 1
16729 20911 20912 1
16730 20911 20913 1
16731 20911 20914 1
16732 20911 20915 1
16733 20916 20917 1
16734 20916 20918 1
16735 20916 20919 1
16736 20916 20920 1
16737 20921 20922 1
16738 20921 20923 1
16739 20921 20924 1
16740 20921 20925 1
16741 20926 20927 1
16742 20926 20928 1
16743 20926 20929 1
16744 20926 20930 1
16745 20931 20932 1
16746 20931 20933 1
16747 20931 20934 1
16748 20931 20935 1
16749 20936 20937 1
16750 20936 20938 1
16751 20936 20939 1
16752 20936 20940 1
16753 20941 20942 1
16754 20941 20943 1
16755 20941 20944 1
16756 20941 20945 1
16757 20946 20947 1
16758 20946 20948 1
16759 20946 20949 1
16760 20946 20950 1
16761 20951 20952 1
16762 20951 20953 1
16763 20951 20954 1
16764 20951 20955 1
16765 20956 20957 1
16766 20956 20958 1
16767 20956 20959 1
16768 20956 20960 1
16769 20961 20962 1
16770 20961 20963 1
16771 20961 20964 1
16772 20961 20965 1
16773 20966 20967 1
16774 20966 20968 1
16775 20966 20969 1
16776 20966 20970 1
16777 20971 20972 1
16778 20971 20973 1
16779 20971 20974 1
16780 20971 20975 1
16781 20976 20979 1
16782 20976 20980 1
16783 20976 20977 1
16784 20976 20978 1
16785 20981 20982 1
16786 20981 20983 1
16787 20981 20984 1
16788 20981 20985 1
16789 20986 20987 1
16790 20986 20988 1
16791 20986 20989 1
16792 20986 20990 1
16793 20991 20992 1
16794 20991 20993 1
16795 20991 20994 1
16796 20991 20995 1
16797 20996 20997 1
16798 20996 20998 1
16799 20996 20999 1
16800 20996 21000 1
16801 21001 21002 1
16802 21001 21003 1
16803 21001 21004 1
16804 21001 21005 1
16805 21006 21007 1
16806 21006 21008 1
16807 21006 21009 1
16808 21006 21010 1
16809 21011 21012 1
16810 21011 21013 1
16811 21011 21014 1
16812 21011 21015 1
16813 21016 21017 1
16814 21016 21018 1
16815 21016 21019 1
16816 21016 21020 1
16817 21021 21022 1
16818 21021 21023 1
16819 21021 21024 1
16820 21021 21025 1
16821 21026 21027 1
16822 21026 21028 1
16823 21026 21029 1
16824 21026 21030 1
16825 21031 21032 1
16826 21031 21033 1
16827 21031 21034 1
16828 21031 21035 1
16829 21036 21037 1
16830 21036 21038 1
16831 21036 21039 1
16832 21036 21040 1
16833 21041 21042 1
16834 21041 21043 1
16835 21041 21044 1
16836 21041 21045 1
16837 21046 21047 1
16838 21046 21048 1
16839 21046 21049 1
16840 21046 21050 1
16841 21051 21052 1
16842 21051 21053 1
16843 21051 21054 1
16844 21051 21055 1
16845 21056 21057 1
16846 21056 21058 1
16847 21056 21059 1
16848 21056 21060 1
16849 21061 21063 1
16850 21061 21064 1
16851 21061 21065 1
16852 21061 21062 1
16853 21066 21067 1
16854 21066 21068 1
16855 21066 21069 1
16856 21066 21070 1
16857 21071 21072 1
16858 21071 21073 1
16859 21071 21074 1
16860 21071 21075 1
16861 21076 21077 1
16862 21076 21078 1
16863 21076 21079 1
16864 21076 21080 1
16865 21081 21082 1
16866 21081 21083 1
16867 21081 21084 1
16868 21081 21085 1
16869 21086 21087 1
16870 21086 21088 1
16871 21086 21089 1
16872 21086 21090 1
16873 21091 21092 1
16874 21091 21093 1
16875 21091 21094 1
16876 21091 21095 1
16877 21096 21097 1
16878 21096 21098 1
16879 21096 21099 1
16880 21096 21100 1
16881 21101 21105 1
16882 21101 21102 1
16883 21101 21103 1
16884 21101 21104 1
16885 21106 21107 1
16886 21106 21108 1
16887 21106 21109 1
16888 21106 21110 1
16889 21111 21112 1
16890 21111 21113 1
16891 21111 21114 1
16892 21111 21115 1
16893 21116 21117 1
16894 21116 21118 1
16895 21116 21119 1
16896 21116 21120 1
16897 21121 21122 1
16898 21121 21123 1
16899 21121 21124 1
16900 21121 21125 1
16901 21126 21127 1
16902 21126 21128 1
16903 21126 21129 1
16904 21126 21130 1
16905 21131 21132 1
16906 21131 21133 1
16907 21131 21134 1
16908 21131 21135 1
16909 21136 21137 1
16910 21136 21138 1
16911 21136 21139 1
16912 21136 21140 1
16913 21141 21142 1
16914 21141 21143 1
16915 21141 21144 1
16916 21141 21145 1
16917 21146 21147 1
16918 21146 21148 1
16919 21146 21149 1
16920 21146 21150 1
16921 21151 21152 1
16922 21151 21153 1
16923 21151 21154 1
16924 21151 21155 1
16925 21156 21157 1
16926 21156 21158 1
16927 21156 21159 1
16928 21156 21160 1
16929 21161 21162 1
16930 21161 21163 1
16931 21161 21164 1
16932 21161 21165 1
16933 21166 21167 1
16934 21166 21168 1
16935 21166 21169 1
16936 21166 21170 1
16937 21171 21172 1
16938 21171 21173 1
16939 21171 21174 1
16940 21171 21175 1
16941 21176 21177 1
16942 21176 21178 1
16943 21176 21179 1
16944 21176 21180 1
16945 21181 21182 1
16946 21181 21183 1
16947 21181 21184 1
16948 21181 21185 1
16949 21186 21187 1
16950 21186 21188 1
16951 21186 21189 1
16952 21186 21190 1
16953 21191 21192 1
16954 21191 21193 1
16955 21191 21194 1
16956 21191 21195 1
16957 21196 21197 1
16958 21196 21198 1
16959 21196 21199 1
16960 21196 21200 1
16961 21201 21202 1
16962 21201 21203 1
16963 21201 21204 1
16964 21201 21205 1
16965 21206 21207 1
16966 21206 21208 1
16967 21206 21209 1
16968 21206 21210 1
16969 21211 21212 1
16970 21211 21213 1
16971 21211 21214 1
16972 21211 21215 1
16973 21216 21217 1
16974 21216 21218 1
16975 21216 21219 1
16976 21216 21220 1
16977 21221 21222 1
16978 21221 21223 1
16979 21221 21224 1
16980 21221 21225 1
16981 21226 21227 1
16982 21226 21228 1
16983 21226 21229 1
16984 21226 21230 1
16985 21231 21232 1
16986 21231 21233 1
16987 21231 21234 1
16988 21231 21235 1
16989 21236 21237 1
16990 21236 21238 1
16991 21236 21239 1
16992 21236 21240 1
16993 21241 21242 1
16994 21241 21243 1
16995 21241 21244 1
16996 21241 21245 1
16997 21246 21247 1
16998 21246 21248 1
16999 21246 21249 1
17000 21246 21250 1
17001 21251 21252 1
17002 21251 21253 1
17003 21251 21254 1
17004 21251 21255 1
17005 21256 21257 1
17006 21256 21258 1
17007 21256 21259 1
17008 21256 21260 1
17009 21261 21262 1
17010 21261 21263 1
17011 21261 21264 1
17012 21261 21265 1
17013 21266 21267 1
17014 21266 21268 1
17015 21266 21269 1
17016 21266 21270 1
17017 21271 21272 1
17018 21271 21273 1
17019 21271 21274 1
17020 21271 21275 1
17021 21276 21277 1
17022 21276 21278 1
17023 21276 21279 1
17024 21276 21280 1
17025 21281 21282 1
17026 21281 21283 1
17027 21281 21284 1
17028 21281 21285 1
17029 21286 21287 1
17030 21286 21288 1
17031 21286 21289 1
17032 21286 21290 1
17033 21291 21292 1
17034 21291 21293 1
17035 21291 21294 1
17036 21291 21295 1
17037 21296 21298 1
17038 21296 21299 1
17039 21296 21300 1
17040 21296 21297 1
17041 21301 21302 1
17042 21301 21303 1
17043 21301 21304 1
17044 21301 21305 1
17045 21306 21307 1
17046 21306 21308 1
17047 21306 21309 1
17048 21306 21310 1
17049 21311 21315 1
17050 21311 21312 1
17051 21311 21313 1
17052 21311 21314 1
17053 21316 21317 1
17054 21316 21318 1
17055 21316 21319 1
17056 21316 21320 1
17057 21321 21322 1
17058 21321 21323 1
17059 21321 21324 1
17060 21321 21325 1
17061 21326 21327 1
17062 21326 21328 1
17063 21326 21329 1
17064 21326 21330 1
17065 21331 21332 1
17066 21331 21333 1
17067 21331 21334 1
17068 21331 21335 1
17069 21336 21337 1
17070 21336 21338 1
17071 21336 21339 1
17072 21336 21340 1
17073 21341 21342 1
17074 21341 21343 1
17075 21341 21344 1
17076 21341 21345 1
17077 21346 21347 1
17078 21346 21348 1
17079 21346 21349 1
17080 21346 21350 1
17081 21351 21352 1
17082 21351 21353 1
17083 21351 21354 1
17084 21351 21355 1
17085 21356 21357 1
17086 21356 21358 1
17087 21356 21359 1
17088 21356 21360 1
17089 21361 21362 1
17090 21361 21363 1
17091 21361 21364 1
17092 21361 21365 1
17093 21366 21367 1
17094 21366 21368 1
17095 21366 21369 1
17096 21366 21370 1
17097 21371 21372 1
17098 21371 21373 1
17099 21371 21374 1
17100 21371 21375 1
17101 21376 21377 1
17102 21376 21378 1
17103 21376 21379 1
17104 21376 21380 1
17105 21381 21382 1
17106 21381 21383 1
17107 21381 21384 1
17108 21381 21385 1
17109 21386 21387 1
17110 21386 21388 1
17111 21386 21389 1
17112 21386 21390 1
17113 21391 21392 1
17114 21391 21393 1
17115 21391 21394 1
17116 21391 21395 1
17117 21396 21399 1
17118 21396 21400 1
17119 21396 21397 1
17120 21396 21398 1
17121 21401 21402 1
17122 21401 21403 1
17123 21401 21404 1
17124 21401 21405 1
17125 21406 21407 1
17126 21406 21408 1
17127 21406 21409 1
17128 21406 21410 1
17129 21411 21412 1
17130 21411 21413 1
17131 21411 21414 1
17132 21411 21415 1
17133 21416 21417 1
17134 21416 21418 1
17135 21416 21419 1
17136 21416 21420 1
17137 21421 21422 1
17138 21421 21423 1
17139 21421 21424 1
17140 21421 21425 1
17141 21426 21427 1
17142 21426 21428 1
17143 21426 21429 1
17144 21426 21430 1
17145 21431 21432 1
17146 21431 21433 1
17147 21431 21434 1
17148 21431 21435 1
17149 21436 21437 1
17150 21436 21438 1
17151 21436 21439 1
17152 21436 21440 1
17153 21441 21442 1
17154 21441 21443 1
17155 21441 21444 1
17156 21441 21445 1
17157 21446 21447 1
17158 21446 21448 1
17159 21446 21449 1
17160 21446 21450 1
17161 21451 21452 1
17162 21451 21453 1
17163 21451 21454 1
17164 21451 21455 1
17165 21456 21457 1
17166 21456 21458 1
17167 21456 21459 1
17168 21456 21460 1
17169 21461 21462 1
17170 21461 21463 1
17171 21461 21464 1
17172 21461 21465 1
17173 21466 21467 1
17174 21466 21468 1
17175 21466 21469 1
17176 21466 21470 1
17177 21471 21472 1
17178 21471 21473 1
17179 21471 21474 1
17180 21471 21475 1
17181 21476 21477 1
17182 21476 21478 1
17183 21476 21479 1
17184 21476 21480 1
17185 21481 21483 1
17186 21481 21484 1
17187 21481 21485 1
17188 21481 21482 1
17189 21486 21487 1
17190 21486 21488 1
17191 21486 21489 1
17192 21486 21490 1
17193 21491 21492 1
17194 21491 21493 1
17195 21491 21494 1
17196 21491 21495 1
17197 21496 21497 1
17198 21496 21498 1
17199 21496 21499 1
17200 21496 21500 1
17201 21501 21502 1
17202 21501 21503 1
17203 21501 21504 1
17204 21501 21505 1
17205 21506 21507 1
17206 21506 21508 1
17207 21506 21509 1
17208 21506 21510 1
17209 21511 21512 1
17210 21511 21513 1
17211 21511 21514 1
17212 21511 21515 1
17213 21516 21517 1
17214 21516 21518 1
17215 21516 21519 1
17216 21516 21520 1
17217 21521 21522 1
17218 21521 21523 1
17219 21521 21524 1
17220 21521 21525 1
17221 21526 21527 1
17222 21526 21528 1
17223 21526 21529 1
17224 21526 21530 1
17225 21531 21532 1
17226 21531 21533 1
17227 21531 21534 1
17228 21531 21535 1
17229 21536 21537 1
17230 21536 21538 1
17231 21536 21539 1
17232 21536 21540 1
17233 21541 21542 1
17234 21541 21543 1
17235 21541 21544 1
17236 21541 21545 1
17237 21546 21547 1
17238 21546 21548 1
17239 21546 21549 1
17240 21546 21550 1
17241 21551 21552 1
17242 21551 21553 1
17243 21551 21554 1
17244 21551 21555 1
17245 21556 21557 1
17246 21556 21558 1
17247 21556 21559 1
17248 21556 21560 1
17249 21561 21562 1
17250 21561 21563 1
17251 21561 21564 1
17252 21561 21565 1
17253 21566 21567 1
17254 21566 21568 1
17255 21566 21569 1
17256 21566 21570 1
17257 21571 21572 1
17258 21571 21573 1
17259 21571 21574 1
17260 21571 21575 1
17261 21576 21577 1
17262 21576 21578 1
17263 21576 21579 1
17264 21576 21580 1
17265 21581 21582 1
17266 21581 21583 1
17267 21581 21584 1
17268 21581 21585 1
17269 21586 21587 1
17270 21586 21588 1
17271 21586 21589 1
17272 21586 21590 1
17273 21591 21592 1
17274 21591 21593 1
17275 21591 21594 1
17276 21591 21595 1
17277 21596 21597 1
17278 21596 21598 1
17279 21596 21599 1
17280 21596 21600 1
17281 21601 21602 1
17282 21601 21603 1
17283 21601 21604 1
17284 21601 21605 1
17285 21606 21607 1
17286 21606 21608 1
17287 21606 21609 1
17288 21606 21610 1
17289 21611 21612 1
17290 21611 21613 1
17291 21611 21614 1
17292 21611 21615 1
17293 21616 21617 1
17294 21616 21618 1
17295 21616 21619 1
17296 21616 21620 1
17297 21621 21622 1
17298 21621 21623 1
17299 21621 21624 1
17300 21621 21625 1
17301 21626 21627 1
17302 21626 21628 1
17303 21626 21629 1
17304 21626 21630 1
17305 21631 21632 1
17306 21631 21633 1
17307 21631 21634 1
17308 21631 21635 1
17309 21636 21637 1
17310 21636 21638 1
17311 21636 21639 1
17312 21636 21640 1
17313 21641 21642 1
17314 21641 21643 1
17315 21641 21644 1
17316 21641 21645 1
17317 21646 21647 1
17318 21646 21648 1
17319 21646 21649 1
17320 21646 21650 1
17321 21651 21652 1
17322 21651 21653 1
17323 21651 21654 1
17324 21651 21655 1
17325 21656 21657 1
17326 21656 21658 1
17327 21656 21659 1
17328 21656 21660 1
17329 21661 21662 1
17330 21661 21663 1
17331 21661 21664 1
17332 21661 21665 1
17333 21666 21667 1
17334 21666 21668 1
17335 21666 21669 1
17336 21666 21670 1
17337 21671 21672 1
17338 21671 21673 1
17339 21671 21674 1
17340 21671 21675 1
17341 21676 21677 1
17342 21676 21678 1
17343 21676 21679 1
17344 21676 21680 1
17345 21681 21682 1
17346 21681 21683 1
17347 21681 21684 1
17348 21681 21685 1
17349 21686 21687 1
17350 21686 21688 1
17351 21686 21689 1
17352 21686 21690 1
17353 21691 21692 1
17354 21691 21693 1
17355 21691 21694 1
17356 21691 21695 1
17357 21696 21697 1
17358 21696 21698 1
17359 21696 21699 1
17360 21696 21700 1
17361 21701 21702 1
17362 21701 21703 1
17363 21701 21704 1
17364 21701 21705 1
17365 21706 21707 1
17366 21706 21708 1
17367 21706 21709 1
17368 21706 21710 1
17369 21711 21712 1
17370 21711 21713 1
17371 21711 21714 1
17372 21711 21715 1
17373 21716 21717 1
17374 21716 21718 1
17375 21716 21719 1
17376 21716 21720 1
17377 21721 21722 1
17378 21721 21723 1
17379 21721 21724 1
17380 21721 21725 1
17381 21726 21727 1
17382 21726 21728 1
17383 21726 21729 1
17384 21726 21730 1
17385 21731 21732 1
17386 21731 21733 1
17387 21731 21734 1
17388 21731 21735 1
17389 21736 21737 1
17390 21736 21738 1
17391 21736 21739 1
17392 21736 21740 1
17393 21741 21742 1
17394 21741 21743 1
17395 21741 21744 1
17396 21741 21745 1
17397 21746 21747 1
17398 21746 21748 1
17399 21746 21749 1
17400 21746 21750 1
17401 21751 21752 1
17402 21751 21753 1
17403 21751 21754 1
17404 21751 21755 1
17405 21756 21757 1
17406 21756 21758 1
17407 21756 21759 1
17408 21756 21760 1
17409 21761 21762 1
17410 21761 21763 1
17411 21761 21764 1
17412 21761 21765 1
17413 21766 21767 1
17414 21766 21768 1
17415 21766 21769 1
17416 21766 21770 1
17417 21771 21772 1
17418 21771 21773 1
17419 21771 21774 1
17420 21771 21775 1
17421 21776 21777 1
17422 21776 21778 1
17423 21776 21779 1
17424 21776 21780 1
17425 21781 21782 1
17426 21781 21783 1
17427 21781 21784 1
17428 21781 21785 1
17429 21786 21787 1
17430 21786 21788 1
17431 21786 21789 1
17432 21786 21790 1
17433 21791 21792 1
17434 21791 21793 1
17435 21791 21794 1
17436 21791 21795 1
17437 21796 21797 1
17438 21796 21798 1
17439 21796 21799 1
17440 21796 21800 1
17441 21801 21802 1
17442 21801 21803 1
17443 21801 21804 1
17444 21801 21805 1
17445 21806 21807 1
17446 21806 21808 1
17447 21806 21809 1
17448 21806 21810 1
17449 21811 21812 1
17450 21811 21813 1
17451 21811 21814 1
17452 21811 21815 1
17453 21816 21819 1
17454 21816 21820 1
17455 21816 21818 1
17456 21816 21817 1
17457 21821 21822 1
17458 21821 21823 1
17459 21821 21824 1
17460 21821 21825 1
17461 21826 21827 1
17462 21826 21828 1
17463 21826 21829 1
17464 21826 21830 1
17465 21831 21832 1
17466 21831 21833 1
17467 21831 21834 1
17468 21831 21835 1
17469 21836 21837 1
17470 21836 21838 1
17471 21836 21839 1
17472 21836 21840 1
17473 21841 21842 1
17474 21841 21843 1
17475 21841 21844 1
17476 21841 21845 1
17477 21846 21847 1
17478 21846 21848 1
17479 21846 21849 1
17480 21846 21850 1
17481 21851 21852 1
17482 21851 21853 1
17483 21851 21854 1
17484 21851 21855 1
17485 21856 21857 1
17486 21856 21858 1
17487 21856 21859 1
17488 21856 21860 1
17489 21861 21862 1
17490 21861 21863 1
17491 21861 21864 1
17492 21861 21865 1
17493 21866 21867 1
17494 21866 21868 1
17495 21866 21869 1
17496 21866 21870 1
17497 21871 21872 1
17498 21871 21873 1
17499 21871 21874 1
17500 21871 21875 1
17501 21876 21877 1
17502 21876 21878 1
17503 21876 21879 1
17504 21876 21880 1
17505 21881 21882 1
17506 21881 21883 1
17507 21881 21884 1
17508 21881 21885 1
17509 21886 21887 1
17510 21886 21888 1
17511 21886 21889 1
17512 21886 21890 1
17513 21891 21892 1
17514 21891 21893 1
17515 21891 21894 1
17516 21891 21895 1
17517 21896 21900 1
17518 21896 21897 1
17519 21896 21898 1
17520 21896 21899 1
17521 21901 21903 1
17522 21901 21904 1
17523 21901 21905 1
17524 21901 21902 1
17525 21906 21907 1
17526 21906 21908 1
17527 21906 21909 1
17528 21906 21910 1
17529 21911 21912 1
17530 21911 21913 1
17531 21911 21914 1
17532 21911 21915 1
17533 21916 21917 1
17534 21916 21918 1
17535 21916 21919 1
17536 21916 21920 1
17537 21921 21922 1
17538 21921 21923 1
17539 21921 21924 1
17540 21921 21925 1
17541 21926 21927 1
17542 21926 21928 1
17543 21926 21929 1
17544 21926 21930 1
17545 21931 21932 1
17546 21931 21933 1
17547 21931 21934 1
17548 21931 21935 1
17549 21936 21937 1
17550 21936 21938 1
17551 21936 21939 1
17552 21936 21940 1
17553 21941 21942 1
17554 21941 21943 1
17555 21941 21944 1
17556 21941 21945 1
17557 21946 21947 1
17558 21946 21948 1
17559 21946 21949 1
17560 21946 21950 1
17561 21951 21952 1
17562 21951 21953 1
17563 21951 21954 1
17564 21951 21955 1
17565 21956 21957 1
17566 21956 21958 1
17567 21956 21959 1
17568 21956 21960 1
17569 21961 21962 1
17570 21961 21963 1
17571 21961 21964 1
17572 21961 21965 1
17573 21966 21967 1
17574 21966 21968 1
17575 21966 21969 1
17576 21966 21970 1
17577 21971 21972 1
17578 21971 21973 1
17579 21971 21974 1
17580 21971 21975 1
17581 21976 21977 1
17582 21976 21978 1
17583 21976 21979 1
17584 21976 21980 1
17585 21981 21982 1
17586 21981 21983 1
17587 21981 21984 1
17588 21981 21985 1
17589 21986 21987 1
17590 21986 21988 1
17591 21986 21989 1
17592 21986 21990 1
17593 21991 21992 1
17594 21991 21993 1
17595 21991 21994 1
17596 21991 21995 1
17597 21996 21997 1
17598 21996 21998 1
17599 21996 21999 1
17600 21996 22000 1
17601 22001 22002 1
17602 22001 22003 1
17603 22001 22004 1
17604 22001 22005 1
17605 22006 22007 1
17606 22006 22008 1
17607 22006 22009 1
17608 22006 22010 1
17609 22011 22012 1
17610 22011 22013 1
17611 22011 22014 1
17612 22011 22015 1
17613 22016 22017 1
17614 22016 22018 1
17615 22016 22019 1
17616 22016 22020 1
17617 22021 22022 1
17618 22021 22023 1
17619 22021 22024 1
17620 22021 22025 1
17621 22026 22027 1
17622 22026 22028 1
17623 22026 22029 1
17624 22026 22030 1
17625 22031 22032 1
17626 22031 22033 1
17627 22031 22034 1
17628 22031 22035 1
17629 22036 22037 1
17630 22036 22038 1
17631 22036 22039 1
17632 22036 22040 1
17633 22041 22042 1
17634 22041 22043 1
17635 22041 22044 1
17636 22041 22045 1
17637 22046 22047 1
17638 22046 22048 1
17639 22046 22049 1
17640 22046 22050 1
17641 22051 22052 1
17642 22051 22053 1
17643 22051 22054 1
17644 22051 22055 1
17645 22056 22057 1
17646 22056 22058 1
17647 22056 22059 1
17648 22056 22060 1
17649 22061 22062 1
17650 22061 22063 1
17651 22061 22064 1
17652 22061 22065 1
17653 22066 22067 1
17654 22066 22068 1
17655 22066 22069 1
17656 22066 22070 1
17657 22071 22072 1
17658 22071 22073 1
17659 22071 22074 1
17660 22071 22075 1
17661 22076 22077 1
17662 22076 22078 1
17663 22076 22079 1
17664 22076 22080 1
17665 22081 22082 1
17666 22081 22083 1
17667 22081 22084 1
17668 22081 22085 1
17669 22086 22087 1
17670 22086 22088 1
17671 22086 22089 1
17672 22086 22090 1
17673 22091 22092 1
17674 22091 22093 1
17675 22091 22094 1
17676 22091 22095 1
17677 22096 22097 1
17678 22096 22098 1
17679 22096 22099 1
17680 22096 22100 1
17681 22101 22102 1
17682 22101 22103 1
17683 22101 22104 1
17684 22101 22105 1
17685 22106 22107 1
17686 22106 22108 1
17687 22106 22109 1
17688 22106 22110 1
17689 22111 22112 1
17690 22111 22113 1
17691 22111 22114 1
17692 22111 22115 1
17693 22116 22117 1
17694 22116 22118 1
17695 22116 22119 1
17696 22116 22120 1
17697 22121 22122 1
17698 22121 22123 1
17699 22121 22124 1
17700 22121 22125 1
17701 22126 22127 1
17702 22126 22128 1
17703 22126 22129 1
17704 22126 22130 1
17705 22131 22132 1
17706 22131 22133 1
17707 22131 22134 1
17708 22131 22135 1
17709 22136 22137 1
17710 22136 22138 1
17711 22136 22139 1
17712 22136 22140 1
17713 22141 22142 1
17714 22141 22143 1
17715 22141 22144 1
17716 22141 22145 1
17717 22146 22147 1
17718 22146 22148 1
17719 22146 22149 1
17720 22146 22150 1
17721 22151 22155 1
17722 22151 22152 1
17723 22151 22153 1
17724 22151 22154 1
17725 22156 22157 1
17726 22156 22158 1
17727 22156 22159 1
17728 22156 22160 1
17729 22161 22162 1
17730 22161 22163 1
17731 22161 22164 1
17732 22161 22165 1
17733 22166 22167 1
17734 22166 22168 1
17735 22166 22169 1
17736 22166 22170 1
17737 22171 22172 1
17738 22171 22173 1
17739 22171 22174 1
17740 22171 22175 1
17741 22176 22177 1
17742 22176 22178 1
17743 22176 22179 1
17744 22176 22180 1
17745 22181 22182 1
17746 22181 22183 1
17747 22181 22184 1
17748 22181 22185 1
17749 22186 22187 1
17750 22186 22188 1
17751 22186 22189 1
17752 22186 22190 1
17753 22191 22192 1
17754 22191 22193 1
17755 22191 22194 1
17756 22191 22195 1
17757 22196 22197 1
17758 22196 22198 1
17759 22196 22199 1
17760 22196 22200 1
17761 22201 22202 1
17762 22201 22203 1
17763 22201 22204 1
17764 22201 22205 1
17765 22206 22207 1
17766 22206 22208 1
17767 22206 22209 1
17768 22206 22210 1
17769 22211 22212 1
17770 22211 22213 1
17771 22211 22214 1
17772 22211 22215 1
17773 22216 22217 1
17774 22216 22218 1
17775 22216 22219 1
17776 22216 22220 1
17777 22221 22222 1
17778 22221 22223 1
17779 22221 22224 1
17780 22221 22225 1
17781 22226 22227 1
17782 22226 22229 1
17783 22226 22230 1
17784 22226 22228 1
17785 22231 22232 1
17786 22231 22233 1
17787 22231 22234 1
17788 22231 22235 1
17789 22236 22237 1
17790 22236 22238 1
17791 22236 22239 1
17792 22236 22240 1
17793 22241 22242 1
17794 22241 22243 1
17795 22241 22244 1
17796 22241 22245 1
17797 22246 22247 1
17798 22246 22248 1
17799 22246 22249 1
17800 22246 22250 1
17801 22251 22252 1
17802 22251 22253 1
17803 22251 22254 1
17804 22251 22255 1
17805 22256 22257 1
17806 22256 22258 1
17807 22256 22259 1
17808 22256 22260 1
17809 22261 22262 1
17810 22261 22263 1
17811 22261 22264 1
17812 22261 22265 1
17813 22266 22267 1
17814 22266 22268 1
17815 22266 22269 1
17816 22266 22270 1
17817 22271 22272 1
17818 22271 22273 1
17819 22271 22274 1
17820 22271 22275 1
17821 22276 22277 1
17822 22276 22278 1
17823 22276 22279 1
17824 22276 22280 1
17825 22281 22282 1
17826 22281 22283 1
17827 22281 22284 1
17828 22281 22285 1
17829 22286 22287 1
17830 22286 22288 1
17831 22286 22289 1
17832 22286 22290 1
17833 22291 22292 1
17834 22291 22293 1
17835 22291 22294 1
17836 22291 22295 1
17837 22296 22297 1
17838 22296 22298 1
17839 22296 22299 1
17840 22296 22300 1
17841 22301 22302 1
17842 22301 22303 1
17843 22301 22304 1
17844 22301 22305 1
17845 22306 22307 1
17846 22306 22308 1
17847 22306 22309 1
17848 22306 22310 1
17849 22311 22312 1
17850 22311 22313 1
17851 22311 22314 1
17852 22311 22315 1
17853 22316 22317 1
17854 22316 22318 1
17855 22316 22319 1
17856 22316 22320 1
17857 22321 22323 1
17858 22321 22324 1
17859 22321 22325 1
17860 22321 22322 1
17861 22326 22327 1
17862 22326 22328 1
17863 22326 22329 1
17864 22326 22330 1
17865 22331 22332 1
17866 22331 22333 1
17867 22331 22334 1
17868 22331 22335 1
17869 22336 22337 1
17870 22336 22338 1
17871 22336 22339 1
17872 22336 22340 1
17873 22341 22342 1
17874 22341 22343 1
17875 22341 22344 1
17876 22341 22345 1
17877 22346 22347 1
17878 22346 22348 1
17879 22346 22349 1
17880 22346 22350 1
17881 22351 22352 1
17882 22351 22353 1
17883 22351 22354 1
17884 22351 22355 1
17885 22356 22357 1
17886 22356 22358 1
17887 22356 22359 1
17888 22356 22360 1
17889 22361 22362 1
17890 22361 22363 1
17891 22361 22364 1
17892 22361 22365 1
17893 22366 22367 1
17894 22366 22368 1
17895 22366 22369 1
17896 22366 22370 1
17897 22371 22372 1
17898 22371 22373 1
17899 22371 22374 1
17900 22371 22375 1
17901 22376 22377 1
17902 22376 22378 1
17903 22376 22379 1
17904 22376 22380 1
17905 22381 22382 1
17906 22381 22383 1
17907 22381 22384 1
17908 22381 22385 1
17909 22386 22387 1
17910 22386 22388 1
17911 22386 22389 1
17912 22386 22390 1
17913 22391 22392 1
17914 22391 22393 1
17915 22391 22394 1
17916 22391 22395 1
17917 22396 22397 1
17918 22396 22398 1
17919 22396 22399 1
17920 22396 22400 1
17921 22401 22402 1
17922 22401 22403 1
17923 22401 22404 1
17924 22401 22405 1
17925 22406 22407 1
17926 22406 22408 1
17927 22406 22409 1
17928 22406 22410 1
17929 22411 22412 1
17930 22411 22413 1
17931 22411 22414 1
17932 22411 22415 1
17933 22416 22417 1
17934 22416 22418 1
17935 22416 22419 1
17936 22416 22420 1
17937 22421 22422 1
17938 22421 22423 1
17939 22421 22424 1
17940 22421 22425 1
17941 22426 22427 1
17942 22426 22428 1
17943 22426 22429 1
17944 22426 22430 1
17945 22431 22432 1
17946 22431 22433 1
17947 22431 22434 1
17948 22431 22435 1
17949 22436 22437 1
17950 22436 22438 1
17951 22436 22439 1
17952 22436 22440 1
17953 22441 22442 1
17954 22441 22443 1
17955 22441 22444 1
17956 22441 22445 1
17957 22446 22447 1
17958 22446 22448 1
17959 22446 22449 1
17960 22446 22450 1
17961 22451 22452 1
17962 22451 22453 1
17963 22451 22454 1
17964 22451 22455 1
17965 22456 22457 1
17966 22456 22458 1
17967 22456 22459 1
17968 22456 22460 1
17969 22461 22462 1
17970 22461 22463 1
17971 22461 22464 1
17972 22461 22465 1
17973 22466 22467 1
17974 22466 22468 1
17975 22466 22469 1
17976 22466 22470 1
17977 22471 22472 1
17978 22471 22473 1
17979 22471 22474 1
17980 22471 22475 1
17981 22476 22479 1
17982 22476 22480 1
17983 22476 22477 1
17984 22476 22478 1
17985 22481 22482 1
17986 22481 22483 1
17987 22481 22484 1
17988 22481 22485 1
17989 22486 22488 1
17990 22486 22490 1
17991 22486 22487 1
17992 22486 22489 1
17993 22491 22492 1
17994 22491 22493 1
17995 22491 22494 1
17996 22491 22495 1
17997 22496 22497 1
17998 22496 22498 1
17999 22496 22499 1
18000 22496 22500 1
18001 22501 22502 1
18002 22501 22503 1
18003 22501 22504 1
18004 22501 22505 1
18005 22506 22507 1
18006 22506 22508 1
18007 22506 22509 1
18008 22506 22510 1
18009 22511 22512 1
18010 22511 22513 1
18011 22511 22514 1
18012 22511 22515 1
18013 22516 22517 1
18014 22516 22518 1
18015 22516 22519 1
18016 22516 22520 1
18017 22521 22522 1
18018 22521 22523 1
18019 22521 22524 1
18020 22521 22525 1
18021 22526 22527 1
18022 22526 22528 1
18023 22526 22529 1
18024 22526 22530 1
18025 22531 22532 1
18026 22531 22533 1
18027 22531 22534 1
18028 22531 22535 1
18029 22536 22537 1
18030 22536 22538 1
18031 22536 22539 1
18032 22536 22540 1
18033 22541 22542 1
18034 22541 22543 1
18035 22541 22544 1
18036 22541 22545 1
18037 22546 22547 1
18038 22546 22548 1
18039 22546 22549 1
18040 22546 22550 1
18041 22551 22552 1
18042 22551 22553 1
18043 22551 22554 1
18044 22551 22555 1
18045 22556 22557 1
18046 22556 22558 1
18047 22556 22559 1
18048 22556 22560 1
18049 22561 22562 1
18050 22561 22563 1
18051 22561 22564 1
18052 22561 22565 1
18053 22566 22567 1
18054 22566 22568 1
18055 22566 22569 1
18056 22566 22570 1
18057 22571 22575 1
18058 22571 22572 1
18059 22571 22573 1
18060 22571 22574 1
18061 22576 22577 1
18062 22576 22578 1
18063 22576 22579 1
18064 22576 22580 1
18065 22581 22582 1
18066 22581 22583 1
18067 22581 22584 1
18068 22581 22585 1
18069 22586 22587 1
18070 22586 22588 1
18071 22586 22589 1
18072 22586 22590 1
18073 22591 22592 1
18074 22591 22593 1
18075 22591 22594 1
18076 22591 22595 1
18077 22596 22597 1
18078 22596 22598 1
18079 22596 22599 1
18080 22596 22600 1
18081 22601 22602 1
18082 22601 22603 1
18083 22601 22604 1
18084 22601 22605 1
18085 22606 22607 1
18086 22606 22608 1
18087 22606 22609 1
18088 22606 22610 1
18089 22611 22615 1
18090 22611 22612 1
18091 22611 22613 1
18092 22611 22614 1
18093 22616 22617 1
18094 22616 22618 1
18095 22616 22619 1
18096 22616 22620 1
18097 22621 22622 1
18098 22621 22623 1
18099 22621 22624 1
18100 22621 22625 1
18101 22626 22627 1
18102 22626 22628 1
18103 22626 22629 1
18104 22626 22630 1
18105 22631 22632 1
18106 22631 22633 1
18107 22631 22634 1
18108 22631 22635 1
18109 22636 22637 1
18110 22636 22638 1
18111 22636 22639 1
18112 22636 22640 1
18113 22641 22642 1
18114 22641 22643 1
18115 22641 22644 1
18116 22641 22645 1
18117 22646 22647 1
18118 22646 22648 1
18119 22646 22649 1
18120 22646 22650 1
18121 22651 22652 1
18122 22651 22653 1
18123 22651 22654 1
18124 22651 22655 1
18125 22656 22659 1
18126 22656 22660 1
18127 22656 22657 1
18128 22656 22658 1
18129 22661 22662 1
18130 22661 22663 1
18131 22661 22664 1
18132 22661 22665 1
18133 22666 22667 1
18134 22666 22668 1
18135 22666 22669 1
18136 22666 22670 1
18137 22671 22672 1
18138 22671 22673 1
18139 22671 22674 1
18140 22671 22675 1
18141 22676 22677 1
18142 22676 22678 1
18143 22676 22679 1
18144 22676 22680 1
18145 22681 22682 1
18146 22681 22683 1
18147 22681 22684 1
18148 22681 22685 1
18149 22686 22687 1
18150 22686 22688 1
18151 22686 22689 1
18152 22686 22690 1
18153 22691 22692 1
18154 22691 22693 1
18155 22691 22694 1
18156 22691 22695 1
18157 22696 22697 1
18158 22696 22698 1
18159 22696 22699 1
18160 22696 22700 1
18161 22701 22702 1
18162 22701 22703 1
18163 22701 22704 1
18164 22701 22705 1
18165 22706 22707 1
18166 22706 22708 1
18167 22706 22709 1
18168 22706 22710 1
18169 22711 22712 1
18170 22711 22713 1
18171 22711 22714 1
18172 22711 22715 1
18173 22716 22717 1
18174 22716 22718 1
18175 22716 22719 1
18176 22716 22720 1
18177 22721 22722 1
18178 22721 22723 1
18179 22721 22724 1
18180 22721 22725 1
18181 22726 22727 1
18182 22726 22728 1
18183 22726 22729 1
18184 22726 22730 1
18185 22731 22732 1
18186 22731 22733 1
18187 22731 22734 1
18188 22731 22735 1
18189 22736 22737 1
18190 22736 22738 1
18191 22736 22739 1
18192 22736 22740 1
18193 22741 22742 1
18194 22741 22743 1
18195 22741 22744 1
18196 22741 22745 1
18197 22746 22747 1
18198 22746 22748 1
18199 22746 22749 1
18200 22746 22750 1
18201 22751 22752 1
18202 22751 22753 1
18203 22751 22754 1
18204 22751 22755 1
18205 22756 22757 1
18206 22756 22758 1
18207 22756 22759 1
18208 22756 22760 1
18209 22761 22762 1
18210 22761 22763 1
18211 22761 22764 1
18212 22761 22765 1
18213 22766 22767 1
18214 22766 22768 1
18215 22766 22769 1
18216 22766 22770 1
18217 22771 22772 1
18218 22771 22773 1
18219 22771 22774 1
18220 22771 22775 1
18221 22776 22777 1
18222 22776 22778 1
18223 22776 22779 1
18224 22776 22780 1
18225 22781 22782 1
18226 22781 22783 1
18227 22781 22784 1
18228 22781 22785 1
18229 22786 22787 1
18230 22786 22788 1
18231 22786 22789 1
18232 22786 22790 1
18233 22791 22792 1
18234 22791 22793 1
18235 22791 22794 1
18236 22791 22795 1
18237 22796 22797 1
18238 22796 22798 1
18239 22796 22799 1
18240 22796 22800 1
18241 22801 22802 1
18242 22801 22803 1
18243 22801 22804 1
18244 22801 22805 1
18245 22806 22807 1
18246 22806 22808 1
18247 22806 22809 1
18248 22806 22810 1
18249 22811 22812 1
18250 22811 22813 1
18251 22811 22814 1
18252 22811 22815 1
18253 22816 22817 1
18254 22816 22818 1
18255 22816 22819 1
18256 22816 22820 1
18257 22821 22822 1
18258 22821 22823 1
18259 22821 22824 1
18260 22821 22825 1
18261 22826 22827 1
18262 22826 22828 1
18263 22826 22829 1
18264 22826 22830 1
18265 22831 22832 1
18266 22831 22833 1
18267 22831 22834 1
18268 22831 22835 1
18269 22836 22837 1
18270 22836 22838 1
18271 22836 22839 1
18272 22836 22840 1
18273 22841 22842 1
18274 22841 22843 1
18275 22841 22844 1
18276 22841 22845 1
18277 22846 22847 1
18278 22846 22848 1
18279 22846 22849 1
18280 22846 22850 1
18281 22851 22852 1
18282 22851 22853 1
18283 22851 22854 1
18284 22851 22855 1
18285 22856 22857 1
18286 22856 22858 1
18287 22856 22859 1
18288 22856 22860 1
18289 22861 22862 1
18290 22861 22863 1
18291 22861 22864 1
18292 22861 22865 1
18293 22866 22867 1
18294 22866 22868 1
18295 22866 22869 1
18296 22866 22870 1
18297 22871 22872 1
18298 22871 22873 1
18299 22871 22874 1
18300 22871 22875 1
18301 22876 22877 1
18302 22876 22878 1
18303 22876 22879 1
18304 22876 22880 1
18305 22881 22882 1
18306 22881 22883 1
18307 22881 22884 1
18308 22881 22885 1
18309 22886 22887 1
18310 22886 22888 1
18311 22886 22889 1
18312 22886 22890 1
18313 22891 22892 1
18314 22891 22893 1
18315 22891 22894 1
18316 22891 22895 1
18317 22896 22897 1
18318 22896 22898 1
18319 22896 22899 1
18320 22896 22900 1
18321 22901 22902 1
18322 22901 22903 1
18323 22901 22904 1
18324 22901 22905 1
18325 22906 22910 1
18326 22906 22907 1
18327 22906 22908 1
18328 22906 22909 1
18329 22911 22912 1
18330 22911 22913 1
18331 22911 22914 1
18332 22911 22915 1
18333 22916 22917 1
18334 22916 22918 1
18335 22916 22919 1
18336 22916 22920 1
18337 22921 22922 1
18338 22921 22923 1
18339 22921 22924 1
18340 22921 22925 1
18341 22926 22927 1
18342 22926 22928 1
18343 22926 22929 1
18344 22926 22930 1
18345 22931 22932 1
18346 22931 22933 1
18347 22931 22934 1
18348 22931 22935 1
18349 22936 22937 1
18350 22936 22938 1
18351 22936 22939 1
18352 22936 22940 1
18353 22941 22942 1
18354 22941 22943 1
18355 22941 22944 1
18356 22941 22945 1
18357 22946 22947 1
18358 22946 22948 1
18359 22946 22949 1
18360 22946 22950 1
18361 22951 22952 1
18362 22951 22953 1
18363 22951 22954 1
18364 22951 22955 1
18365 22956 22957 1
18366 22956 22958 1
18367 22956 22959 1
18368 22956 22960 1
18369 22961 22962 1
18370 22961 22963 1
18371 22961 22964 1
18372 22961 22965 1
18373 22966 22967 1
18374 22966 22968 1
18375 22966 22969 1
18376 22966 22970 1
18377 22971 22972 1
18378 22971 22973 1
18379 22971 22974 1
18380 22971 22975 1
18381 22976 22977 1
18382 22976 22978 1
18383 22976 22979 1
18384 22976 22980 1
18385 22981 22982 1
18386 22981 22983 1
18387 22981 22984 1
18388 22981 22985 1
18389 22986 22987 1
18390 22986 22988 1
18391 22986 22989 1
18392 22986 22990 1
18393 22991 22995 1
18394 22991 22992 1
18395 22991 22993 1
18396 22991 22994 1
18397 22996 22997 1
18398 22996 22998 1
18399 22996 22999 1
18400 22996 23000 1
18401 23001 23002 1
18402 23001 23003 1
18403 23001 23004 1
18404 23001 23005 1
18405 23006 23007 1
18406 23006 23008 1
18407 23006 23009 1
18408 23006 23010 1
18409 23011 23012 1
18410 23011 23013 1
18411 23011 23014 1
18412 23011 23015 1
18413 23016 23017 1
18414 23016 23018 1
18415 23016 23019 1
18416 23016 23020 1
18417 23021 23022 1
18418 23021 23023 1
18419 23021 23024 1
18420 23021 23025 1
18421 23026 23027 1
18422 23026 23028 1
18423 23026 23029 1
18424 23026 23030 1
18425 23031 23032 1
18426 23031 23033 1
18427 23031 23034 1
18428 23031 23035 1
18429 23036 23037 1
18430 23036 23038 1
18431 23036 23039 1
18432 23036 23040 1
18433 23041 23042 1
18434 23041 23043 1
18435 23041 23044 1
18436 23041 23045 1
18437 23046 23047 1
18438 23046 23048 1
18439 23046 23049 1
18440 23046 23050 1
18441 23051 23052 1
18442 23051 23053 1
18443 23051 23054 1
18444 23051 23055 1
18445 23056 23057 1
18446 23056 23058 1
18447 23056 23059 1
18448 23056 23060 1
18449 23061 23062 1
18450 23061 23063 1
18451 23061 23064 1
18452 23061 23065 1
18453 23066 23067 1
18454 23066 23068 1
18455 23066 23069 1
18456 23066 23070 1
18457 23071 23072 1
18458 23071 23073 1
18459 23071 23074 1
18460 23071 23075 1
18461 23076 23079 1
18462 23076 23080 1
18463 23076 23077 1
18464 23076 23078 1
18465 23081 23082 1
18466 23081 23083 1
18467 23081 23084 1
18468 23081 23085 1
18469 23086 23087 1
18470 23086 23088 1
18471 23086 23089 1
18472 23086 23090 1
18473 23091 23092 1
18474 23091 23093 1
18475 23091 23094 1
18476 23091 23095 1
18477 23096 23097 1
18478 23096 23098 1
18479 23096 23099 1
18480 23096 23100 1
18481 23101 23102 1
18482 23101 23103 1
18483 23101 23104 1
18484 23101 23105 1
18485 23106 23107 1
18486 23106 23108 1
18487 23106 23109 1
18488 23106 23110 1
18489 23111 23112 1
18490 23111 23113 1
18491 23111 23114 1
18492 23111 23115 1
18493 23116 23117 1
18494 23116 23118 1
18495 23116 23119 1
18496 23116 23120 1
18497 23121 23122 1
18498 23121 23123 1
18499 23121 23124 1
18500 23121 23125 1
18501 23126 23127 1
18502 23126 23128 1
18503 23126 23129 1
18504 23126 23130 1
18505 23131 23132 1
18506 23131 23133 1
18507 23131 23134 1
18508 23131 23135 1
18509 23136 23137 1
18510 23136 23138 1
18511 23136 23139 1
18512 23136 23140 1
18513 23141 23142 1
18514 23141 23143 1
18515 23141 23144 1
18516 23141 23145 1
18517 23146 23147 1
18518 23146 23148 1
18519 23146 23149 1
18520 23146 23150 1
18521 23151 23152 1
18522 23151 23153 1
18523 23151 23154 1
18524 23151 23155 1
18525 23156 23157 1
18526 23156 23158 1
18527 23156 23159 1
18528 23156 23160 1
18529 23161 23163 1
18530 23161 23164 1
18531 23161 23165 1
18532 23161 23162 1
18533 23166 23167 1
18534 23166 23168 1
18535 23166 23169 1
18536 23166 23170 1
18537 23171 23172 1
18538 23171 23173 1
18539 23171 23174 1
18540 23171 23175 1
18541 23176 23177 1
18542 23176 23178 1
18543 23176 23179 1
18544 23176 23180 1
18545 23181 23182 1
18546 23181 23183 1
18547 23181 23184 1
18548 23181 23185 1
18549 23186 23187 1
18550 23186 23188 1
18551 23186 23189 1
18552 23186 23190 1
18553 23191 23192 1
18554 23191 23193 1
18555 23191 23194 1
18556 23191 23195 1
18557 23196 23197 1
18558 23196 23198 1
18559 23196 23199 1
18560 23196 23200 1
18561 23201 23202 1
18562 23201 23203 1
18563 23201 23204 1
18564 23201 23205 1
18565 23206 23207 1
18566 23206 23208 1
18567 23206 23209 1
18568 23206 23210 1
18569 23211 23212 1
18570 23211 23213 1
18571 23211 23214 1
18572 23211 23215 1
18573 23216 23217 1
18574 23216 23218 1
18575 23216 23219 1
18576 23216 23220 1
18577 23221 23222 1
18578 23221 23223 1
18579 23221 23224 1
18580 23221 23225 1
18581 23226 23227 1
18582 23226 23228 1
18583 23226 23229 1
18584 23226 23230 1
18585 23231 23232 1
18586 23231 23233 1
18587 23231 23234 1
18588 23231 23235 1
18589 23236 23237 1
18590 23236 23238 1
18591 23236 23239 1
18592 23236 23240 1
18593 23241 23242 1
18594 23241 23243 1
18595 23241 23244 1
18596 23241 23245 1
18597 23246 23247 1
18598 23246 23248 1
18599 23246 23249 1
18600 23246 23250 1
18601 23251 23252 1
18602 23251 23253 1
18603 23251 23254 1
18604 23251 23255 1
18605 23256 23257 1
18606 23256 23258 1
18607 23256 23259 1
18608 23256 23260 1
18609 23261 23262 1
18610 23261 23263 1
18611 23261 23264 1
18612 23261 23265 1
18613 23266 23267 1
18614 23266 23268 1
18615 23266 23269 1
18616 23266 23270 1
18617 23271 23272 1
18618 23271 23273 1
18619 23271 23274 1
18620 23271 23275 1
18621 23276 23277 1
18622 23276 23278 1
18623 23276 23279 1
18624 23276 23280 1
18625 23281 23282 1
18626 23281 23283 1
18627 23281 23284 1
18628 23281 23285 1
18629 23286 23287 1
18630 23286 23288 1
18631 23286 23289 1
18632 23286 23290 1
18633 23291 23292 1
18634 23291 23293 1
18635 23291 23294 1
18636 23291 23295 1
18637 23296 23297 1
18638 23296 23298 1
18639 23296 23299 1
18640 23296 23300 1
18641 23301 23302 1
18642 23301 23303 1
18643 23301 23304 1
18644 23301 23305 1
18645 23306 23307 1
18646 23306 23308 1
18647 23306 23309 1
18648 23306 23310 1
18649 23311 23312 1
18650 23311 23313 1
18651 23311 23314 1
18652 23311 23315 1
18653 23316 23317 1
18654 23316 23318 1
18655 23316 23319 1
18656 23316 23320 1
18657 23321 23322 1
18658 23321 23323 1
18659 23321 23324 1
18660 23321 23325 1
18661 23326 23329 1
18662 23326 23330 1
18663 23326 23327 1
18664 23326 23328 1
18665 23331 23332 1
18666 23331 23333 1
18667 23331 23334 1
18668 23331 23335 1
18669 23336 23337 1
18670 23336 23338 1
18671 23336 23339 1
18672 23336 23340 1
18673 23341 23342 1
18674 23341 23343 1
18675 23341 23344 1
18676 23341 23345 1
18677 23346 23347 1
18678 23346 23348 1
18679 23346 23349 1
18680 23346 23350 1
18681 23351 23352 1
18682 23351 23353 1
18683 23351 23354 1
18684 23351 23355 1
18685 23356 23357 1
18686 23356 23358 1
18687 23356 23359 1
18688 23356 23360 1
18689 23361 23362 1
18690 23361 23363 1
18691 23361 23364 1
18692 23361 23365 1
18693 23366 23370 1
18694 23366 23367 1
18695 23366 23368 1
18696 23366 23369 1
18697 23371 23372 1
18698 23371 23373 1
18699 23371 23374 1
18700 23371 23375 1
18701 23376 23377 1
18702 23376 23378 1
18703 23376 23379 1
18704 23376 23380 1
18705 23381 23382 1
18706 23381 23383 1
18707 23381 23384 1
18708 23381 23385 1
18709 23386 23387 1
18710 23386 23388 1
18711 23386 23389 1
18712 23386 23390 1
18713 23391 23392 1
18714 23391 23393 1
18715 23391 23394 1
18716 23391 23395 1
18717 23396 23397 1
18718 23396 23398 1
18719 23396 23399 1
18720 23396 23400 1
18721 23401 23402 1
18722 23401 23403 1
18723 23401 23404 1
18724 23401 23405 1
18725 23406 23407 1
18726 23406 23408 1
18727 23406 23409 1
18728 23406 23410 1
18729 23411 23415 1
18730 23411 23412 1
18731 23411 23413 1
18732 23411 23414 1
18733 23416 23417 1
18734 23416 23418 1
18735 23416 23419 1
18736 23416 23420 1
18737 23421 23422 1
18738 23421 23423 1
18739 23421 23424 1
18740 23421 23425 1
18741 23426 23427 1
18742 23426 23428 1
18743 23426 23429 1
18744 23426 23430 1
18745 23431 23432 1
18746 23431 23433 1
18747 23431 23434 1
18748 23431 23435 1
18749 23436 23437 1
18750 23436 23438 1
18751 23436 23439 1
18752 23436 23440 1
18753 23441 23442 1
18754 23441 23443 1
18755 23441 23444 1
18756 23441 23445 1
18757 23446 23447 1
18758 23446 23448 1
18759 23446 23449 1
18760 23446 23450 1
18761 23451 23452 1
18762 23451 23453 1
18763 23451 23454 1
18764 23451 23455 1
18765 23456 23457 1
18766 23456 23458 1
18767 23456 23459 1
18768 23456 23460 1
18769 23461 23462 1
18770 23461 23463 1
18771 23461 23464 1
18772 23461 23465 1
18773 23466 23467 1
18774 23466 23468 1
18775 23466 23469 1
18776 23466 23470 1
18777 23471 23472 1
18778 23471 23473 1
18779 23471 23474 1
18780 23471 23475 1
18781 23476 23477 1
18782 23476 23478 1
18783 23476 23479 1
18784 23476 23480 1
18785 23481 23482 1
18786 23481 23483 1
18787 23481 23484 1
18788 23481 23485 1
18789 23486 23487 1
18790 23486 23488 1
18791 23486 23489 1
18792 23486 23490 1
18793 23491 23492 1
18794 23491 23493 1
18795 23491 23494 1
18796 23491 23495 1
18797 23496 23499 1
18798 23496 23500 1
18799 23496 23497 1
18800 23496 23498 1
18801 23501 23502 1
18802 23501 23503 1
18803 23501 23504 1
18804 23501 23505 1
18805 23506 23507 1
18806 23506 23508 1
18807 23506 23509 1
18808 23506 23510 1
18809 23511 23512 1
18810 23511 23513 1
18811 23511 23514 1
18812 23511 23515 1
18813 23516 23517 1
18814 23516 23518 1
18815 23516 23519 1
18816 23516 23520 1
18817 23521 23522 1
18818 23521 23523 1
18819 23521 23524 1
18820 23521 23525 1
18821 23526 23527 1
18822 23526 23528 1
18823 23526 23529 1
18824 23526 23530 1
18825 23531 23532 1
18826 23531 23533 1
18827 23531 23534 1
18828 23531 23535 1
18829 23536 23537 1
18830 23536 23538 1
18831 23536 23539 1
18832 23536 23540 1
18833 23541 23542 1
18834 23541 23543 1
18835 23541 23544 1
18836 23541 23545 1
18837 23546 23547 1
18838 23546 23548 1
18839 23546 23549 1
18840 23546 23550 1
18841 23551 23552 1
18842 23551 23553 1
18843 23551 23554 1
18844 23551 23555 1
18845 23556 23557 1
18846 23556 23558 1
18847 23556 23559 1
18848 23556 23560 1
18849 23561 23562 1
18850 23561 23563 1
18851 23561 23564 1
18852 23561 23565 1
18853 23566 23567 1
18854 23566 23568 1
18855 23566 23569 1
18856 23566 23570 1
18857 23571 23572 1
18858 23571 23573 1
18859 23571 23574 1
18860 23571 23575 1
18861 23576 23577 1
18862 23576 23578 1
18863 23576 23579 1
18864 23576 23580 1
18865 23581 23583 1
18866 23581 23584 1
18867 23581 23585 1
18868 23581 23582 1
18869 23586 23587 1
18870 23586 23588 1
18871 23586 23589 1
18872 23586 23590 1
18873 23591 23592 1
18874 23591 23593 1
18875 23591 23594 1
18876 23591 23595 1
18877 23596 23597 1
18878 23596 23598 1
18879 23596 23599 1
18880 23596 23600 1
18881 23601 23602 1
18882 23601 23603 1
18883 23601 23604 1
18884 23601 23605 1
18885 23606 23607 1
18886 23606 23608 1
18887 23606 23609 1
18888 23606 23610 1
18889 23611 23612 1
18890 23611 23613 1
18891 23611 23614 1
18892 23611 23615 1
18893 23616 23617 1
18894 23616 23618 1
18895 23616 23619 1
18896 23616 23620 1
18897 23621 23622 1
18898 23621 23623 1
18899 23621 23624 1
18900 23621 23625 1
18901 23626 23627 1
18902 23626 23628 1
18903 23626 23629 1
18904 23626 23630 1
18905 23631 23632 1
18906 23631 23633 1
18907 23631 23634 1
18908 23631 23635 1
18909 23636 23637 1
18910 23636 23638 1
18911 23636 23639 1
18912 23636 23640 1
18913 23641 23642 1
18914 23641 23643 1
18915 23641 23644 1
18916 23641 23645 1
18917 23646 23647 1
18918 23646 23648 1
18919 23646 23649 1
18920 23646 23650 1
18921 23651 23652 1
18922 23651 23653 1
18923 23651 23654 1
18924 23651 23655 1
18925 23656 23657 1
18926 23656 23658 1
18927 23656 23659 1
18928 23656 23660 1
18929 23661 23662 1
18930 23661 23663 1
18931 23661 23664 1
18932 23661 23665 1
18933 23666 23667 1
18934 23666 23668 1
18935 23666 23669 1
18936 23666 23670 1
18937 23671 23674 1
18938 23671 23672 1
18939 23671 23673 1
18940 23671 23675 1
18941 23676 23677 1
18942 23676 23678 1
18943 23676 23679 1
18944 23676 23680 1
18945 23681 23682 1
18946 23681 23683 1
18947 23681 23684 1
18948 23681 23685 1
18949 23686 23687 1
18950 23686 23688 1
18951 23686 23689 1
18952 23686 23690 1
18953 23691 23692 1
18954 23691 23693 1
18955 23691 23694 1
18956 23691 23695 1
18957 23696 23697 1
18958 23696 23698 1
18959 23696 23699 1
18960 23696 23700 1
18961 23701 23702 1
18962 23701 23703 1
18963 23701 23704 1
18964 23701 23705 1
18965 23706 23707 1
18966 23706 23709 1
18967 23706 23710 1
18968 23706 23708 1
18969 23711 23712 1
18970 23711 23713 1
18971 23711 23714 1
18972 23711 23715 1
18973 23716 23717 1
18974 23716 23718 1
18975 23716 23719 1
18976 23716 23720 1
18977 23721 23722 1
18978 23721 23723 1
18979 23721 23724 1
18980 23721 23725 1
18981 23726 23727 1
18982 23726 23728 1
18983 23726 23729 1
18984 23726 23730 1
18985 23731 23732 1
18986 23731 23733 1
18987 23731 23734 1
18988 23731 23735 1
18989 23736 23737 1
18990 23736 23738 1
18991 23736 23739 1
18992 23736 23740 1
18993 23741 23742 1
18994 23741 23743 1
18995 23741 23744 1
18996 23741 23745 1
18997 23746 23747 1
18998 23746 23748 1
18999 23746 23749 1
19000 23746 23750 1
19001 23751 23752 1
19002 23751 23753 1
19003 23751 23754 1
19004 23751 23755 1
19005 23756 23757 1
19006 23756 23758 1
19007 23756 23759 1
19008 23756 23760 1
19009 23761 23762 1
19010 23761 23763 1
19011 23761 23764 1
19012 23761 23765 1
19013 23766 23767 1
19014 23766 23768 1
19015 23766 23769 1
19016 23766 23770 1
19017 23771 23772 1
19018 23771 23773 1
19019 23771 23774 1
19020 23771 23775 1
19021 23776 23777 1
19022 23776 23778 1
19023 23776 23779 1
19024 23776 23780 1
19025 23781 23782 1
19026 23781 23783 1
19027 23781 23784 1
19028 23781 23785 1
19029 23786 23787 1
19030 23786 23788 1
19031 23786 23789 1
19032 23786 23790 1
19033 23791 23793 1
19034 23791 23794 1
19035 23791 23795 1
19036 23791 23792 1
19037 23796 23797 1
19038 23796 23798 1
19039 23796 23799 1
19040 23796 23800 1
19041 23801 23802 1
19042 23801 23803 1
19043 23801 23804 1
19044 23801 23805 1
19045 23806 23807 1
19046 23806 23808 1
19047 23806 23809 1
19048 23806 23810 1
19049 23811 23812 1
19050 23811 23813 1
19051 23811 23814 1
19052 23811 23815 1
19053 23816 23817 1
19054 23816 23818 1
19055 23816 23819 1
19056 23816 23820 1
19057 23821 23822 1
19058 23821 23823 1
19059 23821 23824 1
19060 23821 23825 1
19061 23826 23827 1
19062 23826 23828 1
19063 23826 23829 1
19064 23826 23830 1
19065 23831 23835 1
19066 23831 23833 1
19067 23831 23834 1
19068 23831 23832 1
19069 23836 23837 1
19070 23836 23838 1
19071 23836 23839 1
19072 23836 23840 1
19073 23841 23842 1
19074 23841 23843 1
19075 23841 23844 1
19076 23841 23845 1
19077 23846 23847 1
19078 23846 23848 1
19079 23846 23849 1
19080 23846 23850 1
19081 23851 23852 1
19082 23851 23853 1
19083 23851 23854 1
19084 23851 23855 1
19085 23856 23857 1
19086 23856 23858 1
19087 23856 23859 1
19088 23856 23860 1
19089 23861 23862 1
19090 23861 23863 1
19091 23861 23864 1
19092 23861 23865 1
19093 23866 23867 1
19094 23866 23868 1
19095 23866 23869 1
19096 23866 23870 1
19097 23871 23872 1
19098 23871 23873 1
19099 23871 23874 1
19100 23871 23875 1
19101 23876 23877 1
19102 23876 23878 1
19103 23876 23879 1
19104 23876 23880 1
19105 23881 23882 1
19106 23881 23883 1
19107 23881 23884 1
19108 23881 23885 1
19109 23886 23887 1
19110 23886 23888 1
19111 23886 23889 1
19112 23886 23890 1
19113 23891 23892 1
19114 23891 23893 1
19115 23891 23894 1
19116 23891 23895 1
19117 23896 23897 1
19118 23896 23898 1
19119 23896 23899 1
19120 23896 23900 1
19121 23901 23902 1
19122 23901 23903 1
19123 23901 23904 1
19124 23901 23905 1
19125 23906 23907 1
19126 23906 23908 1
19127 23906 23909 1
19128 23906 23910 1
19129 23911 23912 1
19130 23911 23913 1
19131 23911 23914 1
19132 23911 23915 1
19133 23916 23919 1
19134 23916 23920 1
19135 23916 23917 1
19136 23916 23918 1
19137 23921 23922 1
19138 23921 23923 1
19139 23921 23924 1
19140 23921 23925 1
19141 23926 23928 1
19142 23926 23927 1
19143 23926 23929 1
19144 23926 23930 1
19145 23931 23932 1
19146 23931 23933 1
19147 23931 23934 1
19148 23931 23935 1
19149 23936 23937 1
19150 23936 23938 1
19151 23936 23939 1
19152 23936 23940 1
19153 23941 23942 1
19154 23941 23943 1
19155 23941 23944 1
19156 23941 23945 1
19157 23946 23947 1
19158 23946 23948 1
19159 23946 23949 1
19160 23946 23950 1
19161 23951 23952 1
19162 23951 23953 1
19163 23951 23954 1
19164 23951 23955 1
19165 23956 23957 1
19166 23956 23958 1
19167 23956 23959 1
19168 23956 23960 1
19169 23961 23962 1
19170 23961 23963 1
19171 23961 23964 1
19172 23961 23965 1
19173 23966 23967 1
19174 23966 23968 1
19175 23966 23969 1
19176 23966 23970 1
19177 23971 23972 1
19178 23971 23973 1
19179 23971 23974 1
19180 23971 23975 1
19181 23976 23977 1
19182 23976 23978 1
19183 23976 23979 1
19184 23976 23980 1
19185 23981 23982 1
19186 23981 23983 1
19187 23981 23984 1
19188 23981 23985 1
19189 23986 23987 1
19190 23986 23988 1
19191 23986 23989 1
19192 23986 23990 1
19193 23991 23992 1
19194 23991 23993 1
19195 23991 23994 1
19196 23991 23995 1
19197 23996 23997 1
19198 23996 23998 1
19199 23996 23999 1
19200 23996 24000 1
19201 24001 24003 1
19202 24001 24004 1
19203 24001 24005 1
19204 24001 24002 1
19205 24006 24007 1
19206 24006 24008 1
19207 24006 24009 1
19208 24006 24010 1
19209 24011 24012 1
19210 24011 24013 1
19211 24011 24014 1
19212 24011 24015 1
19213 24016 24017 1
19214 24016 24018 1
19215 24016 24019 1
19216 24016 24020 1
19217 24021 24022 1
19218 24021 24023 1
19219 24021 24024 1
19220 24021 24025 1
19221 24026 24027 1
19222 24026 24028 1
19223 24026 24029 1
19224 24026 24030 1
19225 24031 24032 1
19226 24031 24033 1
19227 24031 24034 1
19228 24031 24035 1
19229 24036 24037 1
19230 24036 24038 1
19231 24036 24039 1
19232 24036 24040 1
19233 24041 24042 1
19234 24041 24043 1
19235 24041 24044 1
19236 24041 24045 1
19237 24046 24047 1
19238 24046 24048 1
19239 24046 24049 1
19240 24046 24050 1
19241 24051 24052 1
19242 24051 24053 1
19243 24051 24054 1
19244 24051 24055 1
19245 24056 24057 1
19246 24056 24058 1
19247 24056 24059 1
19248 24056 24060 1
19249 24061 24062 1
19250 24061 24063 1
19251 24061 24064 1
19252 24061 24065 1
19253 24066 24067 1
19254 24066 24068 1
19255 24066 24069 1
19256 24066 24070 1
19257 24071 24072 1
19258 24071 24073 1
19259 24071 24074 1
19260 24071 24075 1
19261 24076 24077 1
19262 24076 24078 1
19263 24076 24079 1
19264 24076 24080 1
19265 24081 24082 1
19266 24081 24083 1
19267 24081 24084 1
19268 24081 24085 1
19269 24086 24087 1
19270 24086 24088 1
19271 24086 24089 1
19272 24086 24090 1
19273 24091 24092 1
19274 24091 24093 1
19275 24091 24094 1
19276 24091 24095 1
19277 24096 24097 1
19278 24096 24098 1
19279 24096 24099 1
19280 24096 24100 1
19281 24101 24102 1
19282 24101 24103 1
19283 24101 24104 1
19284 24101 24105 1
19285 24106 24107 1
19286 24106 24108 1
19287 24106 24109 1
19288 24106 24110 1
19289 24111 24112 1
19290 24111 24113 1
19291 24111 24114 1
19292 24111 24115 1
19293 24116 24117 1
19294 24116 24118 1
19295 24116 24119 1
19296 24116 24120 1
19297 24121 24122 1
19298 24121 24123 1
19299 24121 24124 1
19300 24121 24125 1
19301 24126 24127 1
19302 24126 24128 1
19303 24126 24129 1
19304 24126 24130 1
19305 24131 24132 1
19306 24131 24133 1
19307 24131 24134 1
19308 24131 24135 1
19309 24136 24137 1
19310 24136 24138 1
19311 24136 24139 1
19312 24136 24140 1
19313 24141 24142 1
19314 24141 24143 1
19315 24141 24144 1
19316 24141 24145 1
19317 24146 24147 1
19318 24146 24148 1
19319 24146 24149 1
19320 24146 24150 1
19321 24151 24152 1
19322 24151 24153 1
19323 24151 24154 1
19324 24151 24155 1
19325 24156 24157 1
19326 24156 24158 1
19327 24156 24159 1
19328 24156 24160 1
19329 24161 24162 1
19330 24161 24163 1
19331 24161 24164 1
19332 24161 24165 1
19333 24166 24167 1
19334 24166 24168 1
19335 24166 24169 1
19336 24166 24170 1
19337 24171 24172 1
19338 24171 24173 1
19339 24171 24174 1
19340 24171 24175 1
19341 24176 24177 1
19342 24176 24178 1
19343 24176 24179 1
19344 24176 24180 1
19345 24181 24182 1
19346 24181 24183 1
19347 24181 24184 1
19348 24181 24185 1
19349 24186 24187 1
19350 24186 24188 1
19351 24186 24189 1
19352 24186 24190 1
19353 24191 24192 1
19354 24191 24193 1
19355 24191 24194 1
19356 24191 24195 1
19357 24196 24197 1
19358 24196 24198 1
19359 24196 24199 1
19360 24196 24200 1
19361 24201 24202 1
19362 24201 24203 1
19363 24201 24204 1
19364 24201 24205 1
19365 24206 24207 1
19366 24206 24208 1
19367 24206 24209 1
19368 24206 24210 1
19369 24211 24212 1
19370 24211 24213 1
19371 24211 24214 1
19372 24211 24215 1
19373 24216 24217 1
19374 24216 24218 1
19375 24216 24219 1
19376 24216 24220 1
19377 24221 24222 1
19378 24221 24223 1
19379 24221 24224 1
19380 24221 24225 1
19381 24226 24227 1
19382 24226 24228 1
19383 24226 24229 1
19384 24226 24230 1
19385 24231 24232 1
19386 24231 24233 1
19387 24231 24234 1
19388 24231 24235 1
19389 24236 24237 1
19390 24236 24238 1
19391 24236 24239 1
19392 24236 24240 1
19393 24241 24242 1
19394 24241 24243 1
19395 24241 24244 1
19396 24241 24245 1
19397 24246 24247 1
19398 24246 24248 1
19399 24246 24249 1
19400 24246 24250 1
19401 24251 24252 1
19402 24251 24253 1
19403 24251 24254 1
19404 24251 24255 1
19405 24256 24257 1
19406 24256 24258 1
19407 24256 24259 1
19408 24256 24260 1
19409 24261 24262 1
19410 24261 24263 1
19411 24261 24264 1
19412 24261 24265 1
19413 24266 24267 1
19414 24266 24268 1
19415 24266 24269 1
19416 24266 24270 1
19417 24271 24272 1
19418 24271 24273 1
19419 24271 24274 1
19420 24271 24275 1
19421 24276 24277 1
19422 24276 24278 1
19423 24276 24279 1
19424 24276 24280 1
19425 24281 24282 1
19426 24281 24283 1
19427 24281 24284 1
19428 24281 24285 1
19429 24286 24287 1
19430 24286 24288 1
19431 24286 24289 1
19432 24286 24290 1
19433 24291 24292 1
19434 24291 24293 1
19435 24291 24294 1
19436 24291 24295 1
19437 24296 24297 1
19438 24296 24298 1
19439 24296 24299 1
19440 24296 24300 1
19441 24301 24302 1
19442 24301 24303 1
19443 24301 24304 1
19444 24301 24305 1
19445 24306 24307 1
19446 24306 24308 1
19447 24306 24309 1
19448 24306 24310 1
19449 24311 24312 1
19450 24311 24313 1
19451 24311 24314 1
19452 24311 24315 1
19453 24316 24317 1
19454 24316 24318 1
19455 24316 24319 1
19456 24316 24320 1
19457 24321 24322 1
19458 24321 24323 1
19459 24321 24324 1
19460 24321 24325 1
19461 24326 24327 1
19462 24326 24328 1
19463 24326 24329 1
19464 24326 24330 1
19465 24331 24332 1
19466 24331 24333 1
19467 24331 24334 1
19468 24331 24335 1
19469 24336 24339 1
19470 24336 24340 1
19471 24336 24338 1
19472 24336 24337 1
19473 24341 24342 1
19474 24341 24343 1
19475 24341 24344 1
19476 24341 24345 1
19477 24346 24347 1
19478 24346 24348 1
19479 24346 24349 1
19480 24346 24350 1
19481 24351 24352 1
19482 24351 24353 1
19483 24351 24354 1
19484 24351 24355 1
19485 24356 24357 1
19486 24356 24358 1
19487 24356 24359 1
19488 24356 24360 1
19489 24361 24362 1
19490 24361 24363 1
19491 24361 24364 1
19492 24361 24365 1
19493 24366 24367 1
19494 24366 24368 1
19495 24366 24369 1
19496 24366 24370 1
19497 24371 24372 1
19498 24371 24373 1
19499 24371 24374 1
19500 24371 24375 1
19501 24376 24377 1
19502 24376 24378 1
19503 24376 24379 1
19504 24376 24380 1
19505 24381 24382 1
19506 24381 24383 1
19507 24381 24384 1
19508 24381 24385 1
19509 24386 24387 1
19510 24386 24388 1
19511 24386 24389 1
19512 24386 24390 1
19513 24391 24392 1
19514 24391 24393 1
19515 24391 24394 1
19516 24391 24395 1
19517 24396 24397 1
19518 24396 24398 1
19519 24396 24399 1
19520 24396 24400 1
19521 24401 24402 1
19522 24401 24403 1
19523 24401 24404 1
19524 24401 24405 1
19525 24406 24407 1
19526 24406 24408 1
19527 24406 24409 1
19528 24406 24410 1
19529 24411 24412 1
19530 24411 24413 1
19531 24411 24414 1
19532 24411 24415 1
19533 24416 24420 1
19534 24416 24417 1
19535 24416 24418 1
19536 24416 24419 1
19537 24421 24423 1
19538 24421 24424 1
19539 24421 24425 1
19540 24421 24422 1
19541 24426 24427 1
19542 24426 24428 1
19543 24426 24429 1
19544 24426 24430 1
19545 24431 24432 1
19546 24431 24433 1
19547 24431 24434 1
19548 24431 24435 1
19549 24436 24437 1
19550 24436 24438 1
19551 24436 24439 1
19552 24436 24440 1
19553 24441 24442 1
19554 24441 24443 1
19555 24441 24444 1
19556 24441 24445 1
19557 24446 24447 1
19558 24446 24448 1
19559 24446 24449 1
19560 24446 24450 1
19561 24451 24452 1
19562 24451 24453 1
19563 24451 24454 1
19564 24451 24455 1
19565 24456 24457 1
19566 24456 24458 1
19567 24456 24459 1
19568 24456 24460 1
19569 24461 24462 1
19570 24461 24463 1
19571 24461 24464 1
19572 24461 24465 1
19573 24466 24467 1
19574 24466 24468 1
19575 24466 24469 1
19576 24466 24470 1
19577 24471 24472 1
19578 24471 24473 1
19579 24471 24474 1
19580 24471 24475 1
19581 24476 24477 1
19582 24476 24478 1
19583 24476 24479 1
19584 24476 24480 1
19585 24481 24482 1
19586 24481 24483 1
19587 24481 24484 1
19588 24481 24485 1
19589 24486 24487 1
19590 24486 24488 1
19591 24486 24489 1
19592 24486 24490 1
19593 24491 24492 1
19594 24491 24493 1
19595 24491 24494 1
19596 24491 24495 1
19597 24496 24497 1
19598 24496 24498 1
19599 24496 24499 1
19600 24496 24500 1
19601 24501 24502 1
19602 24501 24503 1
19603 24501 24504 1
19604 24501 24505 1
19605 24506 24507 1
19606 24506 24508 1
19607 24506 24509 1
19608 24506 24510 1
19609 24511 24512 1
19610 24511 24513 1
19611 24511 24514 1
19612 24511 24515 1
19613 24516 24517 1
19614 24516 24518 1
19615 24516 24519 1
19616 24516 24520 1
19617 24521 24522 1
19618 24521 24523 1
19619 24521 24524 1
19620 24521 24525 1
19621 24526 24527 1
19622 24526 24528 1
19623 24526 24529 1
19624 24526 24530 1
19625 24531 24532 1
19626 24531 24533 1
19627 24531 24534 1
19628 24531 24535 1
19629 24536 24537 1
19630 24536 24538 1
19631 24536 24539 1
19632 24536 24540 1
19633 24541 24542 1
19634 24541 24543 1
19635 24541 24544 1
19636 24541 24545 1
19637 24546 24547 1
19638 24546 24548 1
19639 24546 24549 1
19640 24546 24550 1
19641 24551 24552 1
19642 24551 24553 1
19643 24551 24554 1
19644 24551 24555 1
19645 24556 24557 1
19646 24556 24558 1
19647 24556 24559 1
19648 24556 24560 1
19649 24561 24562 1
19650 24561 24563 1
19651 24561 24564 1
19652 24561 24565 1
19653 24566 24567 1
19654 24566 24568 1
19655 24566 24569 1
19656 24566 24570 1
19657 24571 24572 1
19658 24571 24573 1
19659 24571 24574 1
19660 24571 24575 1
19661 24576 24577 1
19662 24576 24578 1
19663 24576 24579 1
19664 24576 24580 1
19665 24581 24582 1
19666 24581 24583 1
19667 24581 24584 1
19668 24581 24585 1
19669 24586 24587 1
19670 24586 24588 1
19671 24586 24589 1
19672 24586 24590 1
19673 24591 24592 1
19674 24591 24593 1
19675 24591 24594 1
19676 24591 24595 1
19677 24596 24597 1
19678 24596 24598 1
19679 24596 24599 1
19680 24596 24600 1
19681 24601 24602 1
19682 24601 24603 1
19683 24601 24604 1
19684 24601 24605 1
19685 24606 24607 1
19686 24606 24608 1
19687 24606 24609 1
19688 24606 24610 1
19689 24611 24612 1
19690 24611 24613 1
19691 24611 24614 1
19692 24611 24615 1
19693 24616 24617 1
19694 24616 24618 1
19695 24616 24619 1
19696 24616 24620 1
19697 24621 24622 1
19698 24621 24623 1
19699 24621 24624 1
19700 24621 24625 1
19701 24626 24627 1
19702 24626 24628 1
19703 24626 24629 1
19704 24626 24630 1
19705 24631 24633 1
19706 24631 24634 1
19707 24631 24635 1
19708 24631 24632 1
19709 24636 24637 1
19710 24636 24638 1
19711 24636 24639 1
19712 24636 24640 1
19713 24641 24642 1
19714 24641 24643 1
19715 24641 24644 1
19716 24641 24645 1
19717 24646 24647 1
19718 24646 24648 1
19719 24646 24649 1
19720 24646 24650 1
19721 24651 24652 1
19722 24651 24653 1
19723 24651 24654 1
19724 24651 24655 1
19725 24656 24657 1
19726 24656 24658 1
19727 24656 24659 1
19728 24656 24660 1
19729 24661 24662 1
19730 24661 24663 1
19731 24661 24664 1
19732 24661 24665 1
19733 24666 24667 1
19734 24666 24668 1
19735 24666 24669 1
19736 24666 24670 1
19737 24671 24675 1
19738 24671 24672 1
19739 24671 24673 1
19740 24671 24674 1
19741 24676 24677 1
19742 24676 24678 1
19743 24676 24679 1
19744 24676 24680 1
19745 24681 24682 1
19746 24681 24683 1
19747 24681 24684 1
19748 24681 24685 1
19749 24686 24687 1
19750 24686 24688 1
19751 24686 24689 1
19752 24686 24690 1
19753 24691 24692 1
19754 24691 24693 1
19755 24691 24694 1
19756 24691 24695 1
19757 24696 24697 1
19758 24696 24698 1
19759 24696 24699 1
19760 24696 24700 1
19761 24701 24702 1
19762 24701 24703 1
19763 24701 24704 1
19764 24701 24705 1
19765 24706 24707 1
19766 24706 24708 1
19767 24706 24709 1
19768 24706 24710 1
19769 24711 24712 1
19770 24711 24713 1
19771 24711 24714 1
19772 24711 24715 1
19773 24716 24717 1
19774 24716 24718 1
19775 24716 24719 1
19776 24716 24720 1
19777 24721 24722 1
19778 24721 24723 1
19779 24721 24724 1
19780 24721 24725 1
19781 24726 24727 1
19782 24726 24728 1
19783 24726 24729 1
19784 24726 24730 1
19785 24731 24732 1
19786 24731 24733 1
19787 24731 24734 1
19788 24731 24735 1
19789 24736 24737 1
19790 24736 24738 1
19791 24736 24739 1
19792 24736 24740 1
19793 24741 24742 1
19794 24741 24743 1
19795 24741 24744 1
19796 24741 24745 1
19797 24746 24747 1
19798 24746 24748 1
19799 24746 24749 1
19800 24746 24750 1
19801 24751 24752 1
19802 24751 24753 1
19803 24751 24754 1
19804 24751 24755 1
19805 24756 24757 1
19806 24756 24758 1
19807 24756 24759 1
19808 24756 24760 1
19809 24761 24762 1
19810 24761 24763 1
19811 24761 24764 1
19812 24761 24765 1
19813 24766 24767 1
19814 24766 24768 1
19815 24766 24769 1
19816 24766 24770 1
19817 24771 24772 1
19818 24771 24773 1
19819 24771 24774 1
19820 24771 24775 1
19821 24776 24777 1
19822 24776 24778 1
19823 24776 24779 1
19824 24776 24780 1
19825 24781 24782 1
19826 24781 24783 1
19827 24781 24784 1
19828 24781 24785 1
19829 24786 24787 1
19830 24786 24788 1
19831 24786 24789 1
19832 24786 24790 1
19833 24791 24792 1
19834 24791 24793 1
19835 24791 24794 1
19836 24791 24795 1
19837 24796 24797 1
19838 24796 24798 1
19839 24796 24799 1
19840 24796 24800 1
19841 24801 24802 1
19842 24801 24803 1
19843 24801 24804 1
19844 24801 24805 1
19845 24806 24807 1
19846 24806 24808 1
19847 24806 24809 1
19848 24806 24810 1
19849 24811 24812 1
19850 24811 24813 1
19851 24811 24814 1
19852 24811 24815 1
19853 24816 24817 1
19854 24816 24818 1
19855 24816 24819 1
19856 24816 24820 1
19857 24821 24822 1
19858 24821 24823 1
19859 24821 24824 1
19860 24821 24825 1
19861 24826 24827 1
19862 24826 24828 1
19863 24826 24829 1
19864 24826 24830 1
19865 24831 24832 1
19866 24831 24833 1
19867 24831 24834 1
19868 24831 24835 1
19869 24836 24837 1
19870 24836 24838 1
19871 24836 24839 1
19872 24836 24840 1
19873 24841 24843 1
19874 24841 24844 1
19875 24841 24845 1
19876 24841 24842 1
19877 24846 24847 1
19878 24846 24848 1
19879 24846 24849 1
19880 24846 24850 1
19881 24851 24852 1
19882 24851 24853 1
19883 24851 24854 1
19884 24851 24855 1
19885 24856 24857 1
19886 24856 24858 1
19887 24856 24859 1
19888 24856 24860 1
19889 24861 24862 1
19890 24861 24863 1
19891 24861 24864 1
19892 24861 24865 1
19893 24866 24867 1
19894 24866 24868 1
19895 24866 24869 1
19896 24866 24870 1
19897 24871 24872 1
19898 24871 24873 1
19899 24871 24874 1
19900 24871 24875 1
19901 24876 24877 1
19902 24876 24878 1
19903 24876 24879 1
19904 24876 24880 1
19905 24881 24882 1
19906 24881 24883 1
19907 24881 24884 1
19908 24881 24885 1
19909 24886 24887 1
19910 24886 24888 1
19911 24886 24889 1
19912 24886 24890 1
19913 24891 24892 1
19914 24891 24893 1
19915 24891 24894 1
19916 24891 24895 1
19917 24896 24897 1
19918 24896 24898 1
19919 24896 24899 1
19920 24896 24900 1
19921 24901 24902 1
19922 24901 24903 1
19923 24901 24904 1
19924 24901 24905 1
19925 24906 24907 1
19926 24906 24908 1
19927 24906 24909 1
19928 24906 24910 1
19929 24911 24912 1
19930 24911 24913 1
19931 24911 24914 1
19932 24911 24915 1
19933 24916 24917 1
19934 24916 24918 1
19935 24916 24919 1
19936 24916 24920 1
19937 24921 24922 1
19938 24921 24923 1
19939 24921 24924 1
19940 24921 24925 1
19941 24926 24927 1
19942 24926 24928 1
19943 24926 24929 1
19944 24926 24930 1
19945 24931 24932 1
19946 24931 24933 1
19947 24931 24934 1
19948 24931 24935 1
19949 24936 24937 1
19950 24936 24938 1
19951 24936 24939 1
19952 24936 24940 1
19953 24941 24942 1
19954 24941 24943 1
19955 24941 24944 1
19956 24941 24945 1
19957 24946 24947 1
19958 24946 24948 1
19959 24946 24949 1
19960 24946 24950 1
19961 24951 24952 1
19962 24951 24953 1
19963 24951 24954 1
19964 24951 24955 1
19965 24956 24957 1
19966 24956 24958 1
19967 24956 24959 1
19968 24956 24960 1
19969 24961 24962 1
19970 24961 24963 1
19971 24961 24964 1
19972 24961 24965 1
19973 24966 24967 1
19974 24966 24968 1
19975 24966 24969 1
19976 24966 24970 1
19977 24971 24972 1
19978 24971 24973 1
19979 24971 24974 1
19980 24971 24975 1
19981 24976 24977 1
19982 24976 24978 1
19983 24976 24979 1
19984 24976 24980 1
19985 24981 24982 1
19986 24981 24983 1
19987 24981 24984 1
19988 24981 24985 1
19989 24986 24987 1
19990 24986 24988 1
19991 24986 24989 1
19992 24986 24990 1
19993 24991 24992 1
19994 24991 24993 1
19995 24991 24994 1
19996 24991 24995 1
19997 24996 24998 1
19998 24996 24999 1
19999 24996 25000 1
20000 24996 24997 1
20001 25001 25002 1
20002 25001 25003 1
20003 25001 25004 1
20004 25001 25005 1
20005 25006 25007 1
20006 25006 25008 1
20007 25006 25009 1
20008 25006 25010 1
20009 25011 25012 1
20010 25011 25013 1
20011 25011 25014 1
20012 25011 25015 1
20013 25016 25017 1
20014 25016 25018 1
20015 25016 25019 1
20016 25016 25020 1
20017 25021 25022 1
20018 25021 25023 1
20019 25021 25024 1
20020 25021 25025 1
20021 25026 25027 1
20022 25026 25028 1
20023 25026 25029 1
20024 25026 25030 1
20025 25031 25032 1
20026 25031 25033 1
20027 25031 25034 1
20028 25031 25035 1
20029 25036 25037 1
20030 25036 25038 1
20031 25036 25039 1
20032 25036 25040 1
20033 25041 25042 1
20034 25041 25043 1
20035 25041 25044 1
20036 25041 25045 1
20037 25046 25047 1
20038 25046 25048 1
20039 25046 25049 1
20040 25046 25050 1
20041 25051 25052 1
20042 25051 25053 1
20043 25051 25054 1
20044 25051 25055 1
20045 25056 25057 1
20046 25056 25058 1
20047 25056 25059 1
20048 25056 25060 1
20049 25061 25062 1
20050 25061 25063 1
20051 25061 25064 1
20052 25061 25065 1
20053 25066 25067 1
20054 25066 25068 1
20055 25066 25069 1
20056 25066 25070 1
20057 25071 25072 1
20058 25071 25073 1
20059 25071 25074 1
20060 25071 25075 1
20061 25076 25077 1
20062 25076 25078 1
20063 25076 25079 1
20064 25076 25080 1
20065 25081 25082 1
20066 25081 25083 1
20067 25081 25084 1
20068 25081 25085 1
20069 25086 25087 1
20070 25086 25088 1
20071 25086 25089 1
20072 25086 25090 1
20073 25091 25095 1
20074 25091 25093 1
20075 25091 25092 1
20076 25091 25094 1
20077 25096 25097 1
20078 25096 25098 1
20079 25096 25099 1
20080 25096 25100 1
20081 25101 25102 1
20082 25101 25103 1
20083 25101 25104 1
20084 25101 25105 1
20085 25106 25107 1
20086 25106 25108 1
20087 25106 25109 1
20088 25106 25110 1
20089 25111 25112 1
20090 25111 25113 1
20091 25111 25114 1
20092 25111 25115 1
20093 25116 25117 1
20094 25116 25118 1
20095 25116 25119 1
20096 25116 25120 1
20097 25121 25122 1
20098 25121 25123 1
20099 25121 25124 1
20100 25121 25125 1
20101 25126 25127 1
20102 25126 25128 1
20103 25126 25129 1
20104 25126 25130 1
20105 25131 25132 1
20106 25131 25133 1
20107 25131 25134 1
20108 25131 25135 1
20109 25136 25137 1
20110 25136 25138 1
20111 25136 25139 1
20112 25136 25140 1
20113 25141 25142 1
20114 25141 25143 1
20115 25141 25144 1
20116 25141 25145 1
20117 25146 25147 1
20118 25146 25148 1
20119 25146 25149 1
20120 25146 25150 1
20121 25151 25152 1
20122 25151 25153 1
20123 25151 25154 1
20124 25151 25155 1
20125 25156 25157 1
20126 25156 25158 1
20127 25156 25159 1
20128 25156 25160 1
20129 25161 25162 1
20130 25161 25163 1
20131 25161 25164 1
20132 25161 25165 1
20133 25166 25167 1
20134 25166 25168 1
20135 25166 25169 1
20136 25166 25170 1
20137 25171 25172 1
20138 25171 25173 1
20139 25171 25174 1
20140 25171 25175 1
20141 25176 25179 1
20142 25176 25180 1
20143 25176 25177 1
20144 25176 25178 1
20145 25181 25182 1
20146 25181 25183 1
20147 25181 25184 1
20148 25181 25185 1
20149 25186 25187 1
20150 25186 25188 1
20151 25186 25189 1
20152 25186 25190 1
20153 25191 25192 1
20154 25191 25193 1
20155 25191 25194 1
20156 25191 25195 1
20157 25196 25197 1
20158 25196 25198 1
20159 25196 25199 1
20160 25196 25200 1
20161 25201 25202 1
20162 25201 25204 1
20163 25201 25203 1
20164 25201 25205 1
20165 25206 25207 1
20166 25206 25208 1
20167 25206 25209 1
20168 25206 25210 1
20169 25211 25212 1
20170 25211 25213 1
20171 25211 25214 1
20172 25211 25215 1
20173 25216 25217 1
20174 25216 25218 1
20175 25216 25219 1
20176 25216 25220 1
20177 25221 25222 1
20178 25221 25223 1
20179 25221 25224 1
20180 25221 25225 1
20181 25226 25227 1
20182 25226 25228 1
20183 25226 25229 1
20184 25226 25230 1
20185 25231 25232 1
20186 25231 25233 1
20187 25231 25234 1
20188 25231 25235 1
20189 25236 25237 1
20190 25236 25238 1
20191 25236 25239 1
20192 25236 25240 1
20193 25241 25242 1
20194 25241 25243 1
20195 25241 25244 1
20196 25241 25245 1
20197 25246 25247 1
20198 25246 25248 1
20199 25246 25249 1
20200 25246 25250 1
20201 25251 25252 1
20202 25251 25253 1
20203 25251 25254 1
20204 25251 25255 1
20205 25256 25257 1
20206 25256 25258 1
20207 25256 25259 1
20208 25256 25260 1
20209 25261 25262 1
20210 25261 25263 1
20211 25261 25264 1
20212 25261 25265 1
20213 25266 25267 1
20214 25266 25268 1
20215 25266 25269 1
20216 25266 25270 1
20217 25271 25272 1
20218 25271 25273 1
20219 25271 25274 1
20220 25271 25275 1
20221 25276 25277 1
20222 25276 25278 1
20223 25276 25279 1
20224 25276 25280 1
20225 25281 25282 1
20226 25281 25283 1
20227 25281 25284 1
20228 25281 25285 1
20229 25286 25288 1
20230 25286 25289 1
20231 25286 25290 1
20232 25286 25287 1
20233 25291 25292 1
20234 25291 25293 1
20235 25291 25294 1
20236 25291 25295 1
20237 25296 25297 1
20238 25296 25298 1
20239 25296 25299 1
20240 25296 25300 1
20241 25301 25302 1
20242 25301 25303 1
20243 25301 25304 1
20244 25301 25305 1
20245 25306 25307 1
20246 25306 25308 1
20247 25306 25309 1
20248 25306 25310 1
20249 25311 25312 1
20250 25311 25313 1
20251 25311 25314 1
20252 25311 25315 1
20253 25316 25317 1
20254 25316 25318 1
20255 25316 25319 1
20256 25316 25320 1
20257 25321 25322 1
20258 25321 25323 1
20259 25321 25324 1
20260 25321 25325 1
20261 25326 25327 1
20262 25326 25328 1
20263 25326 25329 1
20264 25326 25330 1
20265 25331 25332 1
20266 25331 25333 1
20267 25331 25334 1
20268 25331 25335 1
20269 25336 25337 1
20270 25336 25338 1
20271 25336 25339 1
20272 25336 25340 1
20273 25341 25342 1
20274 25341 25343 1
20275 25341 25344 1
20276 25341 25345 1
20277 25346 25347 1
20278 25346 25348 1
20279 25346 25349 1
20280 25346 25350 1
20281 25351 25352 1
20282 25351 25353 1
20283 25351 25354 1
20284 25351 25355 1
20285 25356 25357 1
20286 25356 25358 1
20287 25356 25359 1
20288 25356 25360 1
20289 25361 25362 1
20290 25361 25363 1
20291 25361 25364 1
20292 25361 25365 1
20293 25366 25367 1
20294 25366 25368 1
20295 25366 25369 1
20296 25366 25370 1
20297 25371 25372 1
20298 25371 25373 1
20299 25371 25374 1
20300 25371 25375 1
20301 25376 25377 1
20302 25376 25378 1
20303 25376 25379 1
20304 25376 25380 1
20305 25381 25382 1
20306 25381 25383 1
20307 25381 25384 1
20308 25381 25385 1
20309 25386 25387 1
20310 25386 25388 1
20311 25386 25389 1
20312 25386 25390 1
20313 25391 25392 1
20314 25391 25393 1
20315 25391 25394 1
20316 25391 25395 1
20317 25396 25397 1
20318 25396 25398 1
20319 25396 25399 1
20320 25396 25400 1
20321 25401 25402 1
20322 25401 25403 1
20323 25401 25404 1
20324 25401 25405 1
20325 25406 25407 1
20326 25406 25408 1
20327 25406 25409 1
20328 25406 25410 1
20329 25411 25412 1
20330 25411 25413 1
20331 25411 25414 1
20332 25411 25415 1
20333 25416 25417 1
20334 25416 25418 1
20335 25416 25419 1
20336 25416 25420 1
20337 25421 25422 1
20338 25421 25423 1
20339 25421 25424 1
20340 25421 25425 1
20341 25426 25429 1
20342 25426 25427 1
20343 25426 25428 1
20344 25426 25430 1
20345 25431 25432 1
20346 25431 25433 1
20347 25431 25434 1
20348 25431 25435 1
20349 25436 25437 1
20350 25436 25438 1
20351 25436 25439 1
20352 25436 25440 1
20353 25441 25442 1
20354 25441 25443 1
20355 25441 25444 1
20356 25441 25445 1
20357 25446 25447 1
20358 25446 25448 1
20359 25446 25449 1
20360 25446 25450 1
20361 25451 25452 1
20362 25451 25453 1
20363 25451 25454 1
20364 25451 25455 1
20365 25456 25457 1
20366 25456 25458 1
20367 25456 25459 1
20368 25456 25460 1
20369 25461 25462 1
20370 25461 25463 1
20371 25461 25464 1
20372 25461 25465 1
20373 25466 25467 1
20374 25466 25468 1
20375 25466 25469 1
20376 25466 25470 1
20377 25471 25473 1
20378 25471 25474 1
20379 25471 25475 1
20380 25471 25472 1
20381 25476 25477 1
20382 25476 25478 1
20383 25476 25479 1
20384 25476 25480 1
20385 25481 25482 1
20386 25481 25483 1
20387 25481 25484 1
20388 25481 25485 1
20389 25486 25487 1
20390 25486 25488 1
20391 25486 25489 1
20392 25486 25490 1
20393 25491 25492 1
20394 25491 25493 1
20395 25491 25494 1
20396 25491 25495 1
20397 25496 25497 1
20398 25496 25498 1
20399 25496 25499 1
20400 25496 25500 1
20401 25501 25502 1
20402 25501 25503 1
20403 25501 25504 1
20404 25501 25505 1
20405 25506 25507 1
20406 25506 25508 1
20407 25506 25509 1
20408 25506 25510 1
20409 25511 25515 1
20410 25511 25512 1
20411 25511 25513 1
20412 25511 25514 1
20413 25516 25517 1
20414 25516 25518 1
20415 25516 25519 1
20416 25516 25520 1
20417 25521 25522 1
20418 25521 25523 1
20419 25521 25524 1
20420 25521 25525 1
20421 25526 25527 1
20422 25526 25528 1
20423 25526 25529 1
20424 25526 25530 1
20425 25531 25532 1
20426 25531 25533 1
20427 25531 25534 1
20428 25531 25535 1
20429 25536 25537 1
20430 25536 25538 1
20431 25536 25539 1
20432 25536 25540 1
20433 25541 25542 1
20434 25541 25543 1
20435 25541 25544 1
20436 25541 25545 1
20437 25546 25547 1
20438 25546 25548 1
20439 25546 25549 1
20440 25546 25550 1
20441 25551 25552 1
20442 25551 25553 1
20443 25551 25554 1
20444 25551 25555 1
20445 25556 25557 1
20446 25556 25558 1
20447 25556 25559 1
20448 25556 25560 1
20449 25561 25562 1
20450 25561 25563 1
20451 25561 25564 1
20452 25561 25565 1
20453 25566 25567 1
20454 25566 25568 1
20455 25566 25569 1
20456 25566 25570 1
20457 25571 25572 1
20458 25571 25573 1
20459 25571 25574 1
20460 25571 25575 1
20461 25576 25578 1
20462 25576 25577 1
20463 25576 25579 1
20464 25576 25580 1
20465 25581 25582 1
20466 25581 25583 1
20467 25581 25584 1
20468 25581 25585 1
20469 25586 25587 1
20470 25586 25588 1
20471 25586 25589 1
20472 25586 25590 1
20473 25591 25592 1
20474 25591 25593 1
20475 25591 25594 1
20476 25591 25595 1
20477 25596 25599 1
20478 25596 25600 1
20479 25596 25597 1
20480 25596 25598 1
20481 25601 25602 1
20482 25601 25603 1
20483 25601 25604 1
20484 25601 25605 1
20485 25606 25607 1
20486 25606 25608 1
20487 25606 25609 1
20488 25606 25610 1
20489 25611 25612 1
20490 25611 25613 1
20491 25611 25614 1
20492 25611 25615 1
20493 25616 25617 1
20494 25616 25618 1
20495 25616 25619 1
20496 25616 25620 1
20497 25621 25622 1
20498 25621 25623 1
20499 25621 25624 1
20500 25621 25625 1
20501 25626 25627 1
20502 25626 25628 1
20503 25626 25629 1
20504 25626 25630 1
20505 25631 25632 1
20506 25631 25633 1
20507 25631 25634 1
20508 25631 25635 1
20509 25636 25637 1
20510 25636 25638 1
20511 25636 25639 1
20512 25636 25640 1
20513 25641 25642 1
20514 25641 25643 1
20515 25641 25644 1
20516 25641 25645 1
20517 25646 25647 1
20518 25646 25648 1
20519 25646 25649 1
20520 25646 25650 1
20521 25651 25652 1
20522 25651 25653 1
20523 25651 25654 1
20524 25651 25655 1
20525 25656 25657 1
20526 25656 25658 1
20527 25656 25659 1
20528 25656 25660 1
20529 25661 25662 1
20530 25661 25663 1
20531 25661 25664 1
20532 25661 25665 1
20533 25666 25667 1
20534 25666 25668 1
20535 25666 25669 1
20536 25666 25670 1
20537 25671 25672 1
20538 25671 25673 1
20539 25671 25674 1
20540 25671 25675 1
20541 25676 25677 1
20542 25676 25678 1
20543 25676 25679 1
20544 25676 25680 1
20545 25681 25683 1
20546 25681 25684 1
20547 25681 25685 1
20548 25681 25682 1
20549 25686 25687 1
20550 25686 25688 1
20551 25686 25689 1
20552 25686 25690 1
20553 25691 25692 1
20554 25691 25693 1
20555 25691 25694 1
20556 25691 25695 1
20557 25696 25697 1
20558 25696 25698 1
20559 25696 25699 1
20560 25696 25700 1
20561 25701 25702 1
20562 25701 25703 1
20563 25701 25704 1
20564 25701 25705 1
20565 25706 25707 1
20566 25706 25708 1
20567 25706 25709 1
20568 25706 25710 1
20569 25711 25712 1
20570 25711 25713 1
20571 25711 25714 1
20572 25711 25715 1
20573 25716 25717 1
20574 25716 25718 1
20575 25716 25719 1
20576 25716 25720 1
20577 25721 25722 1
20578 25721 25723 1
20579 25721 25724 1
20580 25721 25725 1
20581 25726 25727 1
20582 25726 25728 1
20583 25726 25729 1
20584 25726 25730 1
20585 25731 25732 1
20586 25731 25733 1
20587 25731 25734 1
20588 25731 25735 1
20589 25736 25737 1
20590 25736 25738 1
20591 25736 25739 1
20592 25736 25740 1
20593 25741 25742 1
20594 25741 25743 1
20595 25741 25744 1
20596 25741 25745 1
20597 25746 25747 1
20598 25746 25748 1
20599 25746 25749 1
20600 25746 25750 1
20601 25751 25752 1
20602 25751 25753 1
20603 25751 25754 1
20604 25751 25755 1
20605 25756 25757 1
20606 25756 25758 1
20607 25756 25759 1
20608 25756 25760 1
20609 25761 25762 1
20610 25761 25763 1
20611 25761 25764 1
20612 25761 25765 1
20613 25766 25767 1
20614 25766 25768 1
20615 25766 25769 1
20616 25766 25770 1
20617 25771 25772 1
20618 25771 25773 1
20619 25771 25774 1
20620 25771 25775 1
20621 25776 25777 1
20622 25776 25778 1
20623 25776 25779 1
20624 25776 25780 1
20625 25781 25782 1
20626 25781 25783 1
20627 25781 25784 1
20628 25781 25785 1
20629 25786 25787 1
20630 25786 25788 1
20631 25786 25789 1
20632 25786 25790 1
20633 25791 25792 1
20634 25791 25793 1
20635 25791 25794 1
20636 25791 25795 1
20637 25796 25797 1
20638 25796 25798 1
20639 25796 25799 1
20640 25796 25800 1
20641 25801 25802 1
20642 25801 25803 1
20643 25801 25804 1
20644 25801 25805 1
20645 25806 25807 1
20646 25806 25808 1
20647 25806 25809 1
20648 25806 25810 1
20649 25811 25812 1
20650 25811 25813 1
20651 25811 25814 1
20652 25811 25815 1
20653 25816 25817 1
20654 25816 25818 1
20655 25816 25819 1
20656 25816 25820 1
20657 25821 25822 1
20658 25821 25823 1
20659 25821 25824 1
20660 25821 25825 1
20661 25826 25827 1
20662 25826 25828 1
20663 25826 25829 1
20664 25826 25830 1
20665 25831 25832 1
20666 25831 25833 1
20667 25831 25834 1
20668 25831 25835 1
20669 25836 25837 1
20670 25836 25838 1
20671 25836 25839 1
20672 25836 25840 1
20673 25841 25842 1
20674 25841 25843 1
20675 25841 25844 1
20676 25841 25845 1
20677 25846 25847 1
20678 25846 25848 1
20679 25846 25849 1
20680 25846 25850 1
20681 25851 25852 1
20682 25851 25853 1
20683 25851 25854 1
20684 25851 25855 1
20685 25856 25857 1
20686 25856 25858 1
20687 25856 25859 1
20688 25856 25860 1
20689 25861 25862 1
20690 25861 25863 1
20691 25861 25864 1
20692 25861 25865 1
20693 25866 25867 1
20694 25866 25868 1
20695 25866 25869 1
20696 25866 25870 1
20697 25871 25872 1
20698 25871 25873 1
20699 25871 25874 1
20700 25871 25875 1
20701 25876 25877 1
20702 25876 25878 1
20703 25876 25879 1
20704 25876 25880 1
20705 25881 25882 1
20706 25881 25883 1
20707 25881 25884 1
20708 25881 25885 1
20709 25886 25887 1
20710 25886 25888 1
20711 25886 25889 1
20712 25886 25890 1
20713 25891 25892 1
20714 25891 25893 1
20715 25891 25894 1
20716 25891 25895 1
20717 25896 25897 1
20718 25896 25898 1
20719 25896 25899 1
20720 25896 25900 1
20721 25901 25902 1
20722 25901 25903 1
20723 25901 25904 1
20724 25901 25905 1
20725 25906 25907 1
20726 25906 25908 1
20727 25906 25909 1
20728 25906 25910 1
20729 25911 25912 1
20730 25911 25913 1
20731 25911 25915 1
20732 25911 25914 1
20733 25916 25917 1
20734 25916 25918 1
20735 25916 25919 1
20736 25916 25920 1
20737 25921 25922 1
20738 25921 25923 1
20739 25921 25924 1
20740 25921 25925 1
20741 25926 25927 1
20742 25926 25928 1
20743 25926 25929 1
20744 25926 25930 1
20745 25931 25935 1
20746 25931 25932 1
20747 25931 25933 1
20748 25931 25934 1
20749 25936 25937 1
20750 25936 25938 1
20751 25936 25939 1
20752 25936 25940 1
20753 25941 25942 1
20754 25941 25943 1
20755 25941 25944 1
20756 25941 25945 1
20757 25946 25947 1
20758 25946 25948 1
20759 25946 25949 1
20760 25946 25950 1
20761 25951 25952 1
20762 25951 25953 1
20763 25951 25954 1
20764 25951 25955 1
20765 25956 25957 1
20766 25956 25958 1
20767 25956 25959 1
20768 25956 25960 1
20769 25961 25962 1
20770 25961 25963 1
20771 25961 25964 1
20772 25961 25965 1
20773 25966 25967 1
20774 25966 25968 1
20775 25966 25969 1
20776 25966 25970 1
20777 25971 25972 1
20778 25971 25973 1
20779 25971 25974 1
20780 25971 25975 1
20781 25976 25977 1
20782 25976 25978 1
20783 25976 25979 1
20784 25976 25980 1
20785 25981 25982 1
20786 25981 25983 1
20787 25981 25984 1
20788 25981 25985 1
20789 25986 25987 1
20790 25986 25988 1
20791 25986 25989 1
20792 25986 25990 1
20793 25991 25992 1
20794 25991 25993 1
20795 25991 25994 1
20796 25991 25995 1
20797 25996 25997 1
20798 25996 25998 1
20799 25996 25999 1
20800 25996 26000 1
20801 26001 26002 1
20802 26001 26003 1
20803 26001 26004 1
20804 26001 26005 1
20805 26006 26007 1
20806 26006 26008 1
20807 26006 26009 1
20808 26006 26010 1
20809 26011 26012 1
20810 26011 26013 1
20811 26011 26014 1
20812 26011 26015 1
20813 26016 26019 1
20814 26016 26020 1
20815 26016 26017 1
20816 26016 26018 1
20817 26021 26022 1
20818 26021 26023 1
20819 26021 26024 1
20820 26021 26025 1
20821 26026 26027 1
20822 26026 26028 1
20823 26026 26029 1
20824 26026 26030 1
20825 26031 26032 1
20826 26031 26033 1
20827 26031 26034 1
20828 26031 26035 1
20829 26036 26037 1
20830 26036 26038 1
20831 26036 26039 1
20832 26036 26040 1
20833 26041 26042 1
20834 26041 26043 1
20835 26041 26044 1
20836 26041 26045 1
20837 26046 26047 1
20838 26046 26048 1
20839 26046 26049 1
20840 26046 26050 1
20841 26051 26052 1
20842 26051 26053 1
20843 26051 26054 1
20844 26051 26055 1
20845 26056 26057 1
20846 26056 26058 1
20847 26056 26059 1
20848 26056 26060 1
20849 26061 26062 1
20850 26061 26063 1
20851 26061 26064 1
20852 26061 26065 1
20853 26066 26067 1
20854 26066 26068 1
20855 26066 26069 1
20856 26066 26070 1
20857 26071 26072 1
20858 26071 26073 1
20859 26071 26074 1
20860 26071 26075 1
20861 26076 26077 1
20862 26076 26078 1
20863 26076 26079 1
20864 26076 26080 1
20865 26081 26082 1
20866 26081 26083 1
20867 26081 26084 1
20868 26081 26085 1
20869 26086 26087 1
20870 26086 26088 1
20871 26086 26089 1
20872 26086 26090 1
20873 26091 26092 1
20874 26091 26093 1
20875 26091 26094 1
20876 26091 26095 1
20877 26096 26097 1
20878 26096 26098 1
20879 26096 26099 1
20880 26096 26100 1
20881 26101 26103 1
20882 26101 26104 1
20883 26101 26105 1
20884 26101 26102 1
20885 26106 26107 1
20886 26106 26108 1
20887 26106 26109 1
20888 26106 26110 1
20889 26111 26112 1
20890 26111 26113 1
20891 26111 26114 1
20892 26111 26115 1
20893 26116 26117 1
20894 26116 26118 1
20895 26116 26119 1
20896 26116 26120 1
20897 26121 26122 1
20898 26121 26123 1
20899 26121 26124 1
20900 26121 26125 1
20901 26126 26127 1
20902 26126 26128 1
20903 26126 26129 1
20904 26126 26130 1
20905 26131 26132 1
20906 26131 26133 1
20907 26131 26134 1
20908 26131 26135 1
20909 26136 26137 1
20910 26136 26138 1
20911 26136 26139 1
20912 26136 26140 1
20913 26141 26142 1
20914 26141 26143 1
20915 26141 26144 1
20916 26141 26145 1
20917 26146 26147 1
20918 26146 26148 1
20919 26146 26149 1
20920 26146 26150 1
20921 26151 26152 1
20922 26151 26153 1
20923 26151 26154 1
20924 26151 26155 1
20925 26156 26157 1
20926 26156 26158 1
20927 26156 26159 1
20928 26156 26160 1
20929 26161 26162 1
20930 26161 26163 1
20931 26161 26164 1
20932 26161 26165 1
20933 26166 26167 1
20934 26166 26168 1
20935 26166 26169 1
20936 26166 26170 1
20937 26171 26172 1
20938 26171 26173 1
20939 26171 26174 1
20940 26171 26175 1
20941 26176 26177 1
20942 26176 26178 1
20943 26176 26179 1
20944 26176 26180 1
20945 26181 26182 1
20946 26181 26183 1
20947 26181 26184 1
20948 26181 26185 1
20949 26186 26187 1
20950 26186 26188 1
20951 26186 26189 1
20952 26186 26190 1
20953 26191 26192 1
20954 26191 26193 1
20955 26191 26194 1
20956 26191 26195 1
20957 26196 26197 1
20958 26196 26198 1
20959 26196 26199 1
20960 26196 26200 1
20961 26201 26202 1
20962 26201 26203 1
20963 26201 26204 1
20964 26201 26205 1
20965 26206 26207 1
20966 26206 26208 1
20967 26206 26209 1
20968 26206 26210 1
20969 26211 26212 1
20970 26211 26213 1
20971 26211 26214 1
20972 26211 26215 1
20973 26216 26217 1
20974 26216 26218 1
20975 26216 26219 1
20976 26216 26220 1
20977 26221 26222 1
20978 26221 26223 1
20979 26221 26224 1
20980 26221 26225 1
20981 26226 26227 1
20982 26226 26228 1
20983 26226 26229 1
20984 26226 26230 1
20985 26231 26232 1
20986 26231 26233 1
20987 26231 26234 1
20988 26231 26235 1
20989 26236 26237 1
20990 26236 26238 1
20991 26236 26239 1
20992 26236 26240 1
20993 26241 26242 1
20994 26241 26243 1
20995 26241 26244 1
20996 26241 26245 1
20997 26246 26247 1
20998 26246 26248 1
20999 26246 26249 1
21000 26246 26250 1
21001 26251 26252 1
21002 26251 26253 1
21003 26251 26254 1
21004 26251 26255 1
21005 26256 26257 1
21006 26256 26258 1
21007 26256 26259 1
21008 26256 26260 1
21009 26261 26262 1
21010 26261 26263 1
21011 26261 26264 1
21012 26261 26265 1
21013 26266 26267 1
21014 26266 26268 1
21015 26266 26269 1
21016 26266 26270 1
21017 26271 26272 1
21018 26271 26273 1
21019 26271 26274 1
21020 26271 26275 1
21021 26276 26277 1
21022 26276 26278 1
21023 26276 26279 1
21024 26276 26280 1
21025 26281 26282 1
21026 26281 26283 1
21027 26281 26284 1
21028 26281 26285 1
21029 26286 26287 1
21030 26286 26288 1
21031 26286 26289 1
21032 26286 26290 1
21033 26291 26292 1
21034 26291 26293 1
21035 26291 26294 1
21036 26291 26295 1
21037 26296 26297 1
21038 26296 26298 1
21039 26296 26299 1
21040 26296 26300 1
21041 26301 26302 1
21042 26301 26303 1
21043 26301 26304 1
21044 26301 26305 1
21045 26306 26307 1
21046 26306 26308 1
21047 26306 26309 1
21048 26306 26310 1
21049 26311 26312 1
21050 26311 26313 1
21051 26311 26314 1
21052 26311 26315 1
21053 26316 26317 1
21054 26316 26318 1
21055 26316 26319 1
21056 26316 26320 1
21057 26321 26322 1
21058 26321 26323 1
21059 26321 26324 1
21060 26321 26325 1
21061 26326 26327 1
21062 26326 26328 1
21063 26326 26329 1
21064 26326 26330 1
21065 26331 26332 1
21066 26331 26333 1
21067 26331 26334 1
21068 26331 26335 1
21069 26336 26337 1
21070 26336 26338 1
21071 26336 26339 1
21072 26336 26340 1
21073 26341 26342 1
21074 26341 26343 1
21075 26341 26344 1
21076 26341 26345 1
21077 26346 26347 1
21078 26346 26348 1
21079 26346 26349 1
21080 26346 26350 1
21081 26351 26352 1
21082 26351 26353 1
21083 26351 26354 1
21084 26351 26355 1
21085 26356 26357 1
21086 26356 26358 1
21087 26356 26359 1
21088 26356 26360 1
21089 26361 26362 1
21090 26361 26363 1
21091 26361 26365 1
21092 26361 26364 1
21093 26366 26367 1
21094 26366 26368 1
21095 26366 26369 1
21096 26366 26370 1
21097 26371 26372 1
21098 26371 26373 1
21099 26371 26374 1
21100 26371 26375 1
21101 26376 26377 1
21102 26376 26378 1
21103 26376 26379 1
21104 26376 26380 1
21105 26381 26382 1
21106 26381 26383 1
21107 26381 26384 1
21108 26381 26385 1
21109 26386 26387 1
21110 26386 26388 1
21111 26386 26389 1
21112 26386 26390 1
21113 26391 26392 1
21114 26391 26393 1
21115 26391 26394 1
21116 26391 26395 1
21117 26396 26397 1
21118 26396 26398 1
21119 26396 26399 1
21120 26396 26400 1
21121 26401 26402 1
21122 26401 26403 1
21123 26401 26404 1
21124 26401 26405 1
21125 26406 26407 1
21126 26406 26408 1
21127 26406 26409 1
21128 26406 26410 1
21129 26411 26412 1
21130 26411 26413 1
21131 26411 26414 1
21132 26411 26415 1
21133 26416 26417 1
21134 26416 26418 1
21135 26416 26419 1
21136 26416 26420 1
21137 26421 26422 1
21138 26421 26423 1
21139 26421 26424 1
21140 26421 26425 1
21141 26426 26427 1
21142 26426 26428 1
21143 26426 26429 1
21144 26426 26430 1
21145 26431 26432 1
21146 26431 26433 1
21147 26431 26434 1
21148 26431 26435 1
21149 26436 26437 1
21150 26436 26438 1
21151 26436 26439 1
21152 26436 26440 1
21153 26441 26442 1
21154 26441 26443 1
21155 26441 26444 1
21156 26441 26445 1
21157 26446 26447 1
21158 26446 26448 1
21159 26446 26449 1
21160 26446 26450 1
21161 26451 26452 1
21162 26451 26453 1
21163 26451 26454 1
21164 26451 26455 1
21165 26456 26457 1
21166 26456 26458 1
21167 26456 26459 1
21168 26456 26460 1
21169 26461 26462 1
21170 26461 26463 1
21171 26461 26464 1
21172 26461 26465 1
21173 26466 26467 1
21174 26466 26468 1
21175 26466 26469 1
21176 26466 26470 1
21177 26471 26472 1
21178 26471 26473 1
21179 26471 26474 1
21180 26471 26475 1
21181 26476 26477 1
21182 26476 26478 1
21183 26476 26479 1
21184 26476 26480 1
21185 26481 26482 1
21186 26481 26483 1
21187 26481 26484 1
21188 26481 26485 1
21189 26486 26487 1
21190 26486 26488 1
21191 26486 26489 1
21192 26486 26490 1
21193 26491 26492 1
21194 26491 26493 1
21195 26491 26494 1
21196 26491 26495 1
21197 26496 26497 1
21198 26496 26498 1
21199 26496 26499 1
21200 26496 26500 1
21201 26501 26502 1
21202 26501 26503 1
21203 26501 26504 1
21204 26501 26505 1
21205 26506 26507 1
21206 26506 26508 1
21207 26506 26509 1
21208 26506 26510 1
21209 26511 26512 1
21210 26511 26513 1
21211 26511 26514 1
21212 26511 26515 1
21213 26516 26517 1
21214 26516 26518 1
21215 26516 26519 1
21216 26516 26520 1
21217 26521 26523 1
21218 26521 26524 1
21219 26521 26525 1
21220 26521 26522 1
21221 26526 26527 1
21222 26526 26528 1
21223 26526 26529 1
21224 26526 26530 1
21225 26531 26532 1
21226 26531 26533 1
21227 26531 26534 1
21228 26531 26535 1
21229 26536 26537 1
21230 26536 26538 1
21231 26536 26539 1
21232 26536 26540 1
21233 26541 26542 1
21234 26541 26543 1
21235 26541 26544 1
21236 26541 26545 1
21237 26546 26547 1
21238 26546 26548 1
21239 26546 26549 1
21240 26546 26550 1
21241 26551 26552 1
21242 26551 26553 1
21243 26551 26554 1
21244 26551 26555 1
21245 26556 26557 1
21246 26556 26558 1
21247 26556 26559 1
21248 26556 26560 1
21249 26561 26562 1
21250 26561 26563 1
21251 26561 26564 1
21252 26561 26565 1
21253 26566 26567 1
21254 26566 26568 1
21255 26566 26569 1
21256 26566 26570 1
21257 26571 26572 1
21258 26571 26573 1
21259 26571 26574 1
21260 26571 26575 1
21261 26576 26577 1
21262 26576 26578 1
21263 26576 26579 1
21264 26576 26580 1
21265 26581 26582 1
21266 26581 26583 1
21267 26581 26584 1
21268 26581 26585 1
21269 26586 26587 1
21270 26586 26588 1
21271 26586 26589 1
21272 26586 26590 1
21273 26591 26592 1
21274 26591 26593 1
21275 26591 26594 1
21276 26591 26595 1
21277 26596 26597 1
21278 26596 26598 1
21279 26596 26599 1
21280 26596 26600 1
21281 26601 26602 1
21282 26601 26603 1
21283 26601 26604 1
21284 26601 26605 1
21285 26606 26607 1
21286 26606 26608 1
21287 26606 26609 1
21288 26606 26610 1
21289 26611 26612 1
21290 26611 26613 1
21291 26611 26614 1
21292 26611 26615 1
21293 26616 26617 1
21294 26616 26618 1
21295 26616 26619 1
21296 26616 26620 1
21297 26621 26622 1
21298 26621 26623 1
21299 26621 26624 1
21300 26621 26625 1
21301 26626 26627 1
21302 26626 26628 1
21303 26626 26629 1
21304 26626 26630 1
21305 26631 26632 1
21306 26631 26633 1
21307 26631 26634 1
21308 26631 26635 1
21309 26636 26637 1
21310 26636 26638 1
21311 26636 26639 1
21312 26636 26640 1
21313 26641 26642 1
21314 26641 26643 1
21315 26641 26644 1
21316 26641 26645 1
21317 26646 26647 1
21318 26646 26648 1
21319 26646 26649 1
21320 26646 26650 1
21321 26651 26652 1
21322 26651 26653 1
21323 26651 26654 1
21324 26651 26655 1
21325 26656 26657 1
21326 26656 26658 1
21327 26656 26659 1
21328 26656 26660 1
21329 26661 26662 1
21330 26661 26663 1
21331 26661 26664 1
21332 26661 26665 1
21333 26666 26667 1
21334 26666 26668 1
21335 26666 26669 1
21336 26666 26670 1
21337 26671 26672 1
21338 26671 26673 1
21339 26671 26674 1
21340 26671 26675 1
21341 26676 26677 1
21342 26676 26678 1
21343 26676 26679 1
21344 26676 26680 1
21345 26681 26682 1
21346 26681 26683 1
21347 26681 26684 1
21348 26681 26685 1
21349 26686 26687 1
21350 26686 26688 1
21351 26686 26689 1
21352 26686 26690 1
21353 26691 26692 1
21354 26691 26693 1
21355 26691 26694 1
21356 26691 26695 1
21357 26696 26697 1
21358 26696 26698 1
21359 26696 26699 1
21360 26696 26700 1
21361 26701 26702 1
21362 26701 26703 1
21363 26701 26704 1
21364 26701 26705 1
21365 26706 26707 1
21366 26706 26708 1
21367 26706 26709 1
21368 26706 26710 1
21369 26711 26712 1
21370 26711 26713 1
21371 26711 26714 1
21372 26711 26715 1
21373 26716 26717 1
21374 26716 26718 1
21375 26716 26719 1
21376 26716 26720 1
21377 26721 26722 1
21378 26721 26723 1
21379 26721 26724 1
21380 26721 26725 1
21381 26726 26727 1
21382 26726 26728 1
21383 26726 26729 1
21384 26726 26730 1
21385 26731 26732 1
21386 26731 26733 1
21387 26731 26734 1
21388 26731 26735 1
21389 26736 26737 1
21390 26736 26738 1
21391 26736 26739 1
21392 26736 26740 1
21393 26741 26742 1
21394 26741 26743 1
21395 26741 26744 1
21396 26741 26745 1
21397 26746 26747 1
21398 26746 26748 1
21399 26746 26749 1
21400 26746 26750 1
21401 26751 26752 1
21402 26751 26753 1
21403 26751 26754 1
21404 26751 26755 1
21405 26756 26757 1
21406 26756 26758 1
21407 26756 26759 1
21408 26756 26760 1
21409 26761 26762 1
21410 26761 26763 1
21411 26761 26764 1
21412 26761 26765 1
21413 26766 26767 1
21414 26766 26768 1
21415 26766 26769 1
21416 26766 26770 1
21417 26771 26772 1
21418 26771 26773 1
21419 26771 26774 1
21420 26771 26775 1
21421 26776 26777 1
21422 26776 26778 1
21423 26776 26779 1
21424 26776 26780 1
21425 26781 26782 1
21426 26781 26783 1
21427 26781 26784 1
21428 26781 26785 1
21429 26786 26787 1
21430 26786 26789 1
21431 26786 26790 1
21432 26786 26788 1
21433 26791 26792 1
21434 26791 26793 1
21435 26791 26794 1
21436 26791 26795 1
21437 26796 26797 1
21438 26796 26798 1
21439 26796 26799 1
21440 26796 26800 1
21441 26801 26802 1
21442 26801 26803 1
21443 26801 26804 1
21444 26801 26805 1
21445 26806 26807 1
21446 26806 26808 1
21447 26806 26809 1
21448 26806 26810 1
21449 26811 26812 1
21450 26811 26813 1
21451 26811 26814 1
21452 26811 26815 1
21453 26816 26817 1
21454 26816 26818 1
21455 26816 26819 1
21456 26816 26820 1
21457 26821 26822 1
21458 26821 26823 1
21459 26821 26824 1
21460 26821 26825 1
21461 26826 26827 1
21462 26826 26828 1
21463 26826 26829 1
21464 26826 26830 1
21465 26831 26832 1
21466 26831 26833 1
21467 26831 26834 1
21468 26831 26835 1
21469 26836 26837 1
21470 26836 26838 1
21471 26836 26839 1
21472 26836 26840 1
21473 26841 26842 1
21474 26841 26843 1
21475 26841 26844 1
21476 26841 26845 1
21477 26846 26847 1
21478 26846 26848 1
21479 26846 26849 1
21480 26846 26850 1
21481 26851 26852 1
21482 26851 26853 1
21483 26851 26854 1
21484 26851 26855 1
21485 26856 26859 1
21486 26856 26860 1
21487 26856 26858 1
21488 26856 26857 1
21489 26861 26862 1
21490 26861 26863 1
21491 26861 26864 1
21492 26861 26865 1
21493 26866 26867 1
21494 26866 26868 1
21495 26866 26869 1
21496 26866 26870 1
21497 26871 26872 1
21498 26871 26873 1
21499 26871 26874 1
21500 26871 26875 1
21501 26876 26877 1
21502 26876 26878 1
21503 26876 26879 1
21504 26876 26880 1
21505 26881 26882 1
21506 26881 26883 1
21507 26881 26884 1
21508 26881 26885 1
21509 26886 26887 1
21510 26886 26888 1
21511 26886 26889 1
21512 26886 26890 1
21513 26891 26892 1
21514 26891 26893 1
21515 26891 26894 1
21516 26891 26895 1
21517 26896 26897 1
21518 26896 26898 1
21519 26896 26899 1
21520 26896 26900 1
21521 26901 26902 1
21522 26901 26903 1
21523 26901 26904 1
21524 26901 26905 1
21525 26906 26907 1
21526 26906 26908 1
21527 26906 26909 1
21528 26906 26910 1
21529 26911 26912 1
21530 26911 26913 1
21531 26911 26914 1
21532 26911 26915 1
21533 26916 26917 1
21534 26916 26918 1
21535 26916 26919 1
21536 26916 26920 1
21537 26921 26922 1
21538 26921 26923 1
21539 26921 26924 1
21540 26921 26925 1
21541 26926 26927 1
21542 26926 26928 1
21543 26926 26929 1
21544 26926 26930 1
21545 26931 26932 1
21546 26931 26933 1
21547 26931 26934 1
21548 26931 26935 1
21549 26936 26937 1
21550 26936 26938 1
21551 26936 26939 1
21552 26936 26940 1
21553 26941 26943 1
21554 26941 26944 1
21555 26941 26945 1
21556 26941 26942 1
21557 26946 26947 1
21558 26946 26948 1
21559 26946 26949 1
21560 26946 26950 1
21561 26951 26952 1
21562 26951 26953 1
21563 26951 26954 1
21564 26951 26955 1
21565 26956 26957 1
21566 26956 26958 1
21567 26956 26959 1
21568 26956 26960 1
21569 26961 26962 1
21570 26961 26963 1
21571 26961 26964 1
21572 26961 26965 1
21573 26966 26967 1
21574 26966 26968 1
21575 26966 26969 1
21576 26966 26970 1
21577 26971 26972 1
21578 26971 26973 1
21579 26971 26974 1
21580 26971 26975 1
21581 26976 26977 1
21582 26976 26978 1
21583 26976 26979 1
21584 26976 26980 1
21585 26981 26982 1
21586 26981 26983 1
21587 26981 26984 1
21588 26981 26985 1
21589 26986 26987 1
21590 26986 26988 1
21591 26986 26989 1
21592 26986 26990 1
21593 26991 26992 1
21594 26991 26993 1
21595 26991 26994 1
21596 26991 26995 1
21597 26996 26997 1
21598 26996 26998 1
21599 26996 26999 1
21600 26996 27000 1
21601 27001 27002 1
21602 27001 27003 1
21603 27001 27004 1
21604 27001 27005 1
21605 27006 27007 1
21606 27006 27008 1
21607 27006 27009 1
21608 27006 27010 1
21609 27011 27012 1
21610 27011 27013 1
21611 27011 27014 1
21612 27011 27015 1
21613 27016 27017 1
21614 27016 27018 1
21615 27016 27019 1
21616 27016 27020 1
21617 27021 27022 1
21618 27021 27023 1
21619 27021 27024 1
21620 27021 27025 1
21621 27026 27027 1
21622 27026 27028 1
21623 27026 27029 1
21624 27026 27030 1
21625 27031 27032 1
21626 27031 27033 1
21627 27031 27034 1
21628 27031 27035 1
21629 27036 27037 1
21630 27036 27038 1
21631 27036 27039 1
21632 27036 27040 1
21633 27041 27042 1
21634 27041 27043 1
21635 27041 27044 1
21636 27041 27045 1
21637 27046 27047 1
21638 27046 27048 1
21639 27046 27049 1
21640 27046 27050 1
21641 27051 27052 1
21642 27051 27053 1
21643 27051 27054 1
21644 27051 27055 1
21645 27056 27057 1
21646 27056 27058 1
21647 27056 27059 1
21648 27056 27060 1
21649 27061 27062 1
21650 27061 27063 1
21651 27061 27064 1
21652 27061 27065 1
21653 27066 27067 1
21654 27066 27068 1
21655 27066 27069 1
21656 27066 27070 1
21657 27071 27072 1
21658 27071 27073 1
21659 27071 27074 1
21660 27071 27075 1
21661 27076 27077 1
21662 27076 27078 1
21663 27076 27079 1
21664 27076 27080 1
21665 27081 27082 1
21666 27081 27083 1
21667 27081 27084 1
21668 27081 27085 1
21669 27086 27087 1
21670 27086 27088 1
21671 27086 27089 1
21672 27086 27090 1
21673 27091 27092 1
21674 27091 27093 1
21675 27091 27094 1
21676 27091 27095 1
21677 27096 27097 1
21678 27096 27098 1
21679 27096 27099 1
21680 27096 27100 1
21681 27101 27102 1
21682 27101 27103 1
21683 27101 27104 1
21684 27101 27105 1
21685 27106 27107 1
21686 27106 27108 1
21687 27106 27109 1
21688 27106 27110 1
21689 27111 27112 1
21690 27111 27113 1
21691 27111 27114 1
21692 27111 27115 1
21693 27116 27117 1
21694 27116 27118 1
21695 27116 27119 1
21696 27116 27120 1
21697 27121 27122 1
21698 27121 27123 1
21699 27121 27124 1
21700 27121 27125 1
21701 27126 27127 1
21702 27126 27128 1
21703 27126 27129 1
21704 27126 27130 1
21705 27131 27132 1
21706 27131 27133 1
21707 27131 27134 1
21708 27131 27135 1
21709 27136 27137 1
21710 27136 27138 1
21711 27136 27139 1
21712 27136 27140 1
21713 27141 27142 1
21714 27141 27143 1
21715 27141 27144 1
21716 27141 27145 1
21717 27146 27147 1
21718 27146 27148 1
21719 27146 27149 1
21720 27146 27150 1
21721 27151 27152 1
21722 27151 27153 1
21723 27151 27154 1
21724 27151 27155 1
21725 27156 27157 1
21726 27156 27158 1
21727 27156 27159 1
21728 27156 27160 1
21729 27161 27162 1
21730 27161 27163 1
21731 27161 27164 1
21732 27161 27165 1
21733 27166 27167 1
21734 27166 27168 1
21735 27166 27169 1
21736 27166 27170 1
21737 27171 27172 1
21738 27171 27173 1
21739 27171 27174 1
21740 27171 27175 1
21741 27176 27177 1
21742 27176 27178 1
21743 27176 27179 1
21744 27176 27180 1
21745 27181 27182 1
21746 27181 27183 1
21747 27181 27184 1
21748 27181 27185 1
21749 27186 27187 1
21750 27186 27188 1
21751 27186 27189 1
21752 27186 27190 1
21753 27191 27195 1
21754 27191 27192 1
21755 27191 27193 1
21756 27191 27194 1
21757 27196 27197 1
21758 27196 27198 1
21759 27196 27199 1
21760 27196 27200 1
21761 27201 27202 1
21762 27201 27203 1
21763 27201 27204 1
21764 27201 27205 1
21765 27206 27207 1
21766 27206 27208 1
21767 27206 27209 1
21768 27206 27210 1
21769 27211 27212 1
21770 27211 27213 1
21771 27211 27214 1
21772 27211 27215 1
21773 27216 27217 1
21774 27216 27218 1
21775 27216 27219 1
21776 27216 27220 1
21777 27221 27222 1
21778 27221 27223 1
21779 27221 27224 1
21780 27221 27225 1
21781 27226 27227 1
21782 27226 27228 1
21783 27226 27229 1
21784 27226 27230 1
21785 27231 27232 1
21786 27231 27233 1
21787 27231 27234 1
21788 27231 27235 1
21789 27236 27237 1
21790 27236 27238 1
21791 27236 27239 1
21792 27236 27240 1
21793 27241 27242 1
21794 27241 27243 1
21795 27241 27244 1
21796 27241 27245 1
21797 27246 27247 1
21798 27246 27248 1
21799 27246 27249 1
21800 27246 27250 1
21801 27251 27252 1
21802 27251 27253 1
21803 27251 27254 1
21804 27251 27255 1
21805 27256 27257 1
21806 27256 27258 1
21807 27256 27259 1
21808 27256 27260 1
21809 27261 27262 1
21810 27261 27263 1
21811 27261 27264 1
21812 27261 27265 1
21813 27266 27267 1
21814 27266 27268 1
21815 27266 27269 1
21816 27266 27270 1
21817 27271 27272 1
21818 27271 27273 1
21819 27271 27274 1
21820 27271 27275 1
21821 27276 27277 1
21822 27276 27278 1
21823 27276 27279 1
21824 27276 27280 1
21825 27281 27282 1
21826 27281 27283 1
21827 27281 27284 1
21828 27281 27285 1
21829 27286 27287 1
21830 27286 27288 1
21831 27286 27289 1
21832 27286 27290 1
21833 27291 27292 1
21834 27291 27293 1
21835 27291 27294 1
21836 27291 27295 1
21837 27296 27297 1
21838 27296 27298 1
21839 27296 27299 1
21840 27296 27300 1
21841 27301 27302 1
21842 27301 27303 1
21843 27301 27304 1
21844 27301 27305 1
21845 27306 27307 1
21846 27306 27308 1
21847 27306 27309 1
21848 27306 27310 1
21849 27311 27312 1
21850 27311 27313 1
21851 27311 27314 1
21852 27311 27315 1
21853 27316 27317 1
21854 27316 27318 1
21855 27316 27319 1
21856 27316 27320 1
21857 27321 27322 1
21858 27321 27323 1
21859 27321 27324 1
21860 27321 27325 1
21861 27326 27327 1
21862 27326 27328 1
21863 27326 27329 1
21864 27326 27330 1
21865 27331 27332 1
21866 27331 27333 1
21867 27331 27334 1
21868 27331 27335 1
21869 27336 27337 1
21870 27336 27338 1
21871 27336 27339 1
21872 27336 27340 1
21873 27341 27342 1
21874 27341 27343 1
21875 27341 27344 1
21876 27341 27345 1
21877 27346 27347 1
21878 27346 27348 1
21879 27346 27349 1
21880 27346 27350 1
21881 27351 27352 1
21882 27351 27353 1
21883 27351 27354 1
21884 27351 27355 1
21885 27356 27357 1
21886 27356 27358 1
21887 27356 27359 1
21888 27356 27360 1
21889 27361 27363 1
21890 27361 27364 1
21891 27361 27365 1
21892 27361 27362 1
21893 27366 27367 1
21894 27366 27368 1
21895 27366 27369 1
21896 27366 27370 1
21897 27371 27372 1
21898 27371 27373 1
21899 27371 27374 1
21900 27371 27375 1
21901 27376 27377 1
21902 27376 27378 1
21903 27376 27379 1
21904 27376 27380 1
21905 27381 27382 1
21906 27381 27383 1
21907 27381 27384 1
21908 27381 27385 1
21909 27386 27387 1
21910 27386 27388 1
21911 27386 27389 1
21912 27386 27390 1
21913 27391 27393 1
21914 27391 27392 1
21915 27391 27394 1
21916 27391 27395 1
21917 27396 27397 1
21918 27396 27398 1
21919 27396 27399 1
21920 27396 27400 1
21921 27401 27402 1
21922 27401 27403 1
21923 27401 27404 1
21924 27401 27405 1
21925 27406 27407 1
21926 27406 27408 1
21927 27406 27409 1
21928 27406 27410 1
21929 27411 27412 1
21930 27411 27413 1
21931 27411 27414 1
21932 27411 27415 1
21933 27416 27417 1
21934 27416 27418 1
21935 27416 27419 1
21936 27416 27420 1
21937 27421 27422 1
21938 27421 27423 1
21939 27421 27424 1
21940 27421 27425 1
21941 27426 27427 1
21942 27426 27428 1
21943 27426 27429 1
21944 27426 27430 1
21945 27431 27432 1
21946 27431 27433 1
21947 27431 27434 1
21948 27431 27435 1
21949 27436 27437 1
21950 27436 27438 1
21951 27436 27439 1
21952 27436 27440 1
21953 27441 27442 1
21954 27441 27443 1
21955 27441 27444 1
21956 27441 27445 1
21957 27446 27447 1
21958 27446 27448 1
21959 27446 27449 1
21960 27446 27450 1
21961 27451 27452 1
21962 27451 27453 1
21963 27451 27454 1
21964 27451 27455 1
21965 27456 27457 1
21966 27456 27458 1
21967 27456 27459 1
21968 27456 27460 1
21969 27461 27462 1
21970 27461 27463 1
21971 27461 27464 1
21972 27461 27465 1
21973 27466 27467 1
21974 27466 27468 1
21975 27466 27469 1
21976 27466 27470 1
21977 27471 27472 1
21978 27471 27473 1
21979 27471 27474 1
21980 27471 27475 1
21981 27476 27477 1
21982 27476 27478 1
21983 27476 27479 1
21984 27476 27480 1
21985 27481 27482 1
21986 27481 27483 1
21987 27481 27484 1
21988 27481 27485 1
21989 27486 27487 1
21990 27486 27488 1
21991 27486 27489 1
21992 27486 27490 1
21993 27491 27492 1
21994 27491 27493 1
21995 27491 27494 1
21996 27491 27495 1
21997 27496 27497 1
21998 27496 27498 1
21999 27496 27499 1
22000 27496 27500 1
22001 27501 27502 1
22002 27501 27503 1
22003 27501 27504 1
22004 27501 27505 1
22005 27506 27507 1
22006 27506 27508 1
22007 27506 27509 1
22008 27506 27510 1
22009 27511 27512 1
22010 27511 27513 1
22011 27511 27514 1
22012 27511 27515 1
22013 27516 27517 1
22014 27516 27518 1
22015 27516 27519 1
22016 27516 27520 1
22017 27521 27522 1
22018 27521 27523 1
22019 27521 27524 1
22020 27521 27525 1
22021 27526 27527 1
22022 27526 27528 1
22023 27526 27529 1
22024 27526 27530 1
22025 27531 27532 1
22026 27531 27533 1
22027 27531 27534 1
22028 27531 27535 1
22029 27536 27537 1
22030 27536 27538 1
22031 27536 27539 1
22032 27536 27540 1
22033 27541 27542 1
22034 27541 27543 1
22035 27541 27544 1
22036 27541 27545 1
22037 27546 27547 1
22038 27546 27548 1
22039 27546 27549 1
22040 27546 27550 1
22041 27551 27552 1
22042 27551 27553 1
22043 27551 27554 1
22044 27551 27555 1
22045 27556 27557 1
22046 27556 27558 1
22047 27556 27559 1
22048 27556 27560 1
22049 27561 27562 1
22050 27561 27563 1
22051 27561 27564 1
22052 27561 27565 1
22053 27566 27567 1
22054 27566 27568 1
22055 27566 27569 1
22056 27566 27570 1
22057 27571 27572 1
22058 27571 27573 1
22059 27571 27574 1
22060 27571 27575 1
22061 27576 27577 1
22062 27576 27578 1
22063 27576 27579 1
22064 27576 27580 1
22065 27581 27582 1
22066 27581 27583 1
22067 27581 27584 1
22068 27581 27585 1
22069 27586 27587 1
22070 27586 27588 1
22071 27586 27589 1
22072 27586 27590 1
22073 27591 27592 1
22074 27591 27593 1
22075 27591 27594 1
22076 27591 27595 1
22077 27596 27597 1
22078 27596 27598 1
22079 27596 27599 1
22080 27596 27600 1
22081 27601 27602 1
22082 27601 27603 1
22083 27601 27604 1
22084 27601 27605 1
22085 27606 27607 1
22086 27606 27608 1
22087 27606 27609 1
22088 27606 27610 1
22089 27611 27615 1
22090 27611 27612 1
22091 27611 27613 1
22092 27611 27614 1
22093 27616 27617 1
22094 27616 27618 1
22095 27616 27619 1
22096 27616 27620 1
22097 27621 27622 1
22098 27621 27623 1
22099 27621 27624 1
22100 27621 27625 1
22101 27626 27627 1
22102 27626 27628 1
22103 27626 27629 1
22104 27626 27630 1
22105 27631 27632 1
22106 27631 27633 1
22107 27631 27634 1
22108 27631 27635 1
22109 27636 27637 1
22110 27636 27638 1
22111 27636 27639 1
22112 27636 27640 1
22113 27641 27642 1
22114 27641 27643 1
22115 27641 27644 1
22116 27641 27645 1
22117 27646 27647 1
22118 27646 27648 1
22119 27646 27649 1
22120 27646 27650 1
22121 27651 27652 1
22122 27651 27653 1
22123 27651 27654 1
22124 27651 27655 1
22125 27656 27657 1
22126 27656 27658 1
22127 27656 27659 1
22128 27656 27660 1
22129 27661 27662 1
22130 27661 27663 1
22131 27661 27664 1
22132 27661 27665 1
22133 27666 27667 1
22134 27666 27668 1
22135 27666 27669 1
22136 27666 27670 1
22137 27671 27672 1
22138 27671 27673 1
22139 27671 27674 1
22140 27671 27675 1
22141 27676 27677 1
22142 27676 27678 1
22143 27676 27679 1
22144 27676 27680 1
22145 27681 27682 1
22146 27681 27683 1
22147 27681 27684 1
22148 27681 27685 1
22149 27686 27687 1
22150 27686 27688 1
22151 27686 27689 1
22152 27686 27690 1
22153 27691 27692 1
22154 27691 27693 1
22155 27691 27694 1
22156 27691 27695 1
22157 27696 27699 1
22158 27696 27700 1
22159 27696 27697 1
22160 27696 27698 1
22161 27701 27702 1
22162 27701 27703 1
22163 27701 27704 1
22164 27701 27705 1
22165 27706 27707 1
22166 27706 27708 1
22167 27706 27709 1
22168 27706 27710 1
22169 27711 27712 1
22170 27711 27713 1
22171 27711 27714 1
22172 27711 27715 1
22173 27716 27717 1
22174 27716 27718 1
22175 27716 27719 1
22176 27716 27720 1
22177 27721 27722 1
22178 27721 27723 1
22179 27721 27724 1
22180 27721 27725 1
22181 27726 27727 1
22182 27726 27728 1
22183 27726 27729 1
22184 27726 27730 1
22185 27731 27732 1
22186 27731 27733 1
22187 27731 27734 1
22188 27731 27735 1
22189 27736 27737 1
22190 27736 27738 1
22191 27736 27739 1
22192 27736 27740 1
22193 27741 27742 1
22194 27741 27743 1
22195 27741 27744 1
22196 27741 27745 1
22197 27746 27747 1
22198 27746 27748 1
22199 27746 27749 1
22200 27746 27750 1
22201 27751 27752 1
22202 27751 27753 1
22203 27751 27754 1
22204 27751 27755 1
22205 27756 27757 1
22206 27756 27758 1
22207 27756 27759 1
22208 27756 27760 1
22209 27761 27762 1
22210 27761 27763 1
22211 27761 27764 1
22212 27761 27765 1
22213 27766 27767 1
22214 27766 27768 1
22215 27766 27769 1
22216 27766 27770 1
22217 27771 27772 1
22218 27771 27773 1
22219 27771 27774 1
22220 27771 27775 1
22221 27776 27777 1
22222 27776 27778 1
22223 27776 27779 1
22224 27776 27780 1
22225 27781 27782 1
22226 27781 27783 1
22227 27781 27784 1
22228 27781 27785 1
22229 27786 27787 1
22230 27786 27788 1
22231 27786 27789 1
22232 27786 27790 1
22233 27791 27792 1
22234 27791 27793 1
22235 27791 27794 1
22236 27791 27795 1
22237 27796 27797 1
22238 27796 27798 1
22239 27796 27799 1
22240 27796 27800 1
22241 27801 27802 1
22242 27801 27803 1
22243 27801 27804 1
22244 27801 27805 1
22245 27806 27807 1
22246 27806 27808 1
22247 27806 27809 1
22248 27806 27810 1
22249 27811 27812 1
22250 27811 27813 1
22251 27811 27814 1
22252 27811 27815 1
22253 27816 27817 1
22254 27816 27818 1
22255 27816 27819 1
22256 27816 27820 1
22257 27821 27822 1
22258 27821 27823 1
22259 27821 27824 1
22260 27821 27825 1
22261 27826 27827 1
22262 27826 27828 1
22263 27826 27829 1
22264 27826 27830 1
22265 27831 27832 1
22266 27831 27833 1
22267 27831 27834 1
22268 27831 27835 1
22269 27836 27837 1
22270 27836 27838 1
22271 27836 27839 1
22272 27836 27840 1
22273 27841 27842 1
22274 27841 27843 1
22275 27841 27844 1
22276 27841 27845 1
22277 27846 27847 1
22278 27846 27848 1
22279 27846 27849 1
22280 27846 27850 1
22281 27851 27852 1
22282 27851 27853 1
22283 27851 27854 1
22284 27851 27855 1
22285 27856 27857 1
22286 27856 27858 1
22287 27856 27859 1
22288 27856 27860 1
22289 27861 27864 1
22290 27861 27865 1
22291 27861 27862 1
22292 27861 27863 1
22293 27866 27867 1
22294 27866 27868 1
22295 27866 27869 1
22296 27866 27870 1
22297 27871 27872 1
22298 27871 27873 1
22299 27871 27874 1
22300 27871 27875 1
22301 27876 27877 1
22302 27876 27878 1
22303 27876 27879 1
22304 27876 27880 1
22305 27881 27882 1
22306 27881 27883 1
22307 27881 27884 1
22308 27881 27885 1
22309 27886 27887 1
22310 27886 27888 1
22311 27886 27889 1
22312 27886 27890 1
22313 27891 27892 1
22314 27891 27893 1
22315 27891 27894 1
22316 27891 27895 1
22317 27896 27897 1
22318 27896 27898 1
22319 27896 27899 1
22320 27896 27900 1
22321 27901 27902 1
22322 27901 27903 1
22323 27901 27904 1
22324 27901 27905 1
22325 27906 27907 1
22326 27906 27908 1
22327 27906 27909 1
22328 27906 27910 1
22329 27911 27912 1
22330 27911 27913 1
22331 27911 27914 1
22332 27911 27915 1
22333 27916 27917 1
22334 27916 27918 1
22335 27916 27919 1
22336 27916 27920 1
22337 27921 27922 1
22338 27921 27923 1
22339 27921 27924 1
22340 27921 27925 1
22341 27926 27927 1
22342 27926 27928 1
22343 27926 27929 1
22344 27926 27930 1
22345 27931 27932 1
22346 27931 27933 1
22347 27931 27934 1
22348 27931 27935 1
22349 27936 27937 1
22350 27936 27938 1
22351 27936 27939 1
22352 27936 27940 1
22353 27941 27942 1
22354 27941 27943 1
22355 27941 27944 1
22356 27941 27945 1
22357 27946 27948 1
22358 27946 27947 1
22359 27946 27949 1
22360 27946 27950 1
22361 27951 27952 1
22362 27951 27953 1
22363 27951 27954 1
22364 27951 27955 1
22365 27956 27957 1
22366 27956 27958 1
22367 27956 27959 1
22368 27956 27960 1
22369 27961 27962 1
22370 27961 27963 1
22371 27961 27964 1
22372 27961 27965 1
22373 27966 27967 1
22374 27966 27968 1
22375 27966 27969 1
22376 27966 27970 1
22377 27971 27972 1
22378 27971 27973 1
22379 27971 27974 1
22380 27971 27975 1
22381 27976 27977 1
22382 27976 27978 1
22383 27976 27979 1
22384 27976 27980 1
22385 27981 27982 1
22386 27981 27983 1
22387 27981 27984 1
22388 27981 27985 1
22389 27986 27987 1
22390 27986 27988 1
22391 27986 27989 1
22392 27986 27990 1
22393 27991 27993 1
22394 27991 27994 1
22395 27991 27995 1
22396 27991 27992 1
22397 27996 27997 1
22398 27996 27998 1
22399 27996 27999 1
22400 27996 28000 1
22401 28001 28002 1
22402 28001 28003 1
22403 28001 28004 1
22404 28001 28005 1
22405 28006 28007 1
22406 28006 28008 1
22407 28006 28009 1
22408 28006 28010 1
22409 28011 28012 1
22410 28011 28013 1
22411 28011 28014 1
22412 28011 28015 1
22413 28016 28017 1
22414 28016 28018 1
22415 28016 28019 1
22416 28016 28020 1
22417 28021 28022 1
22418 28021 28023 1
22419 28021 28024 1
22420 28021 28025 1
22421 28026 28027 1
22422 28026 28028 1
22423 28026 28029 1
22424 28026 28030 1
22425 28031 28035 1
22426 28031 28032 1
22427 28031 28033 1
22428 28031 28034 1
22429 28036 28037 1
22430 28036 28038 1
22431 28036 28039 1
22432 28036 28040 1
22433 28041 28042 1
22434 28041 28043 1
22435 28041 28044 1
22436 28041 28045 1
22437 28046 28047 1
22438 28046 28048 1
22439 28046 28049 1
22440 28046 28050 1
22441 28051 28052 1
22442 28051 28053 1
22443 28051 28054 1
22444 28051 28055 1
22445 28056 28057 1
22446 28056 28058 1
22447 28056 28059 1
22448 28056 28060 1
22449 28061 28062 1
22450 28061 28063 1
22451 28061 28064 1
22452 28061 28065 1
22453 28066 28067 1
22454 28066 28068 1
22455 28066 28069 1
22456 28066 28070 1
22457 28071 28072 1
22458 28071 28073 1
22459 28071 28074 1
22460 28071 28075 1
22461 28076 28077 1
22462 28076 28078 1
22463 28076 28079 1
22464 28076 28080 1
22465 28081 28082 1
22466 28081 28083 1
22467 28081 28084 1
22468 28081 28085 1
22469 28086 28087 1
22470 28086 28088 1
22471 28086 28089 1
22472 28086 28090 1
22473 28091 28092 1
22474 28091 28093 1
22475 28091 28094 1
22476 28091 28095 1
22477 28096 28097 1
22478 28096 28098 1
22479 28096 28099 1
22480 28096 28100 1
22481 28101 28102 1
22482 28101 28103 1
22483 28101 28104 1
22484 28101 28105 1
22485 28106 28107 1
22486 28106 28108 1
22487 28106 28109 1
22488 28106 28110 1
22489 28111 28112 1
22490 28111 28113 1
22491 28111 28114 1
22492 28111 28115 1
22493 28116 28119 1
22494 28116 28120 1
22495 28116 28117 1
22496 28116 28118 1
22497 28121 28122 1
22498 28121 28123 1
22499 28121 28124 1
22500 28121 28125 1
22501 28126 28127 1
22502 28126 28128 1
22503 28126 28129 1
22504 28126 28130 1
22505 28131 28132 1
22506 28131 28133 1
22507 28131 28134 1
22508 28131 28135 1
22509 28136 28137 1
22510 28136 28138 1
22511 28136 28139 1
22512 28136 28140 1
22513 28141 28142 1
22514 28141 28143 1
22515 28141 28144 1
22516 28141 28145 1
22517 28146 28147 1
22518 28146 28148 1
22519 28146 28149 1
22520 28146 28150 1
22521 28151 28152 1
22522 28151 28153 1
22523 28151 28154 1
22524 28151 28155 1
22525 28156 28157 1
22526 28156 28158 1
22527 28156 28159 1
22528 28156 28160 1
22529 28161 28162 1
22530 28161 28163 1
22531 28161 28164 1
22532 28161 28165 1
22533 28166 28167 1
22534 28166 28168 1
22535 28166 28169 1
22536 28166 28170 1
22537 28171 28172 1
22538 28171 28173 1
22539 28171 28174 1
22540 28171 28175 1
22541 28176 28177 1
22542 28176 28178 1
22543 28176 28179 1
22544 28176 28180 1
22545 28181 28182 1
22546 28181 28183 1
22547 28181 28184 1
22548 28181 28185 1
22549 28186 28187 1
22550 28186 28188 1
22551 28186 28189 1
22552 28186 28190 1
22553 28191 28192 1
22554 28191 28193 1
22555 28191 28194 1
22556 28191 28195 1
22557 28196 28197 1
22558 28196 28198 1
22559 28196 28199 1
22560 28196 28200 1
22561 28201 28203 1
22562 28201 28204 1
22563 28201 28205 1
22564 28201 28202 1
22565 28206 28207 1
22566 28206 28208 1
22567 28206 28209 1
22568 28206 28210 1
22569 28211 28212 1
22570 28211 28213 1
22571 28211 28214 1
22572 28211 28215 1
22573 28216 28217 1
22574 28216 28218 1
22575 28216 28219 1
22576 28216 28220 1
22577 28221 28222 1
22578 28221 28223 1
22579 28221 28224 1
22580 28221 28225 1
22581 28226 28227 1
22582 28226 28228 1
22583 28226 28229 1
22584 28226 28230 1
22585 28231 28232 1
22586 28231 28233 1
22587 28231 28234 1
22588 28231 28235 1
22589 28236 28237 1
22590 28236 28238 1
22591 28236 28239 1
22592 28236 28240 1
22593 28241 28242 1
22594 28241 28243 1
22595 28241 28244 1
22596 28241 28245 1
22597 28246 28247 1
22598 28246 28248 1
22599 28246 28249 1
22600 28246 28250 1
22601 28251 28252 1
22602 28251 28253 1
22603 28251 28254 1
22604 28251 28255 1
22605 28256 28257 1
22606 28256 28258 1
22607 28256 28259 1
22608 28256 28260 1
22609 28261 28262 1
22610 28261 28263 1
22611 28261 28264 1
22612 28261 28265 1
22613 28266 28267 1
22614 28266 28268 1
22615 28266 28269 1
22616 28266 28270 1
22617 28271 28272 1
22618 28271 28273 1
22619 28271 28274 1
22620 28271 28275 1
22621 28276 28277 1
22622 28276 28278 1
22623 28276 28279 1
22624 28276 28280 1
22625 28281 28282 1
22626 28281 28283 1
22627 28281 28284 1
22628 28281 28285 1
22629 28286 28287 1
22630 28286 28288 1
22631 28286 28289 1
22632 28286 28290 1
22633 28291 28292 1
22634 28291 28293 1
22635 28291 28294 1
22636 28291 28295 1
22637 28296 28297 1
22638 28296 28298 1
22639 28296 28299 1
22640 28296 28300 1
22641 28301 28302 1
22642 28301 28303 1
22643 28301 28304 1
22644 28301 28305 1
22645 28306 28307 1
22646 28306 28308 1
22647 28306 28309 1
22648 28306 28310 1
22649 28311 28312 1
22650 28311 28313 1
22651 28311 28314 1
22652 28311 28315 1
22653 28316 28317 1
22654 28316 28318 1
22655 28316 28319 1
22656 28316 28320 1
22657 28321 28322 1
22658 28321 28323 1
22659 28321 28324 1
22660 28321 28325 1
22661 28326 28327 1
22662 28326 28328 1
22663 28326 28329 1
22664 28326 28330 1
22665 28331 28332 1
22666 28331 28333 1
22667 28331 28334 1
22668 28331 28335 1
22669 28336 28337 1
22670 28336 28338 1
22671 28336 28339 1
22672 28336 28340 1
22673 28341 28342 1
22674 28341 28343 1
22675 28341 28344 1
22676 28341 28345 1
22677 28346 28347 1
22678 28346 28348 1
22679 28346 28349 1
22680 28346 28350 1
22681 28351 28352 1
22682 28351 28353 1
22683 28351 28354 1
22684 28351 28355 1
22685 28356 28357 1
22686 28356 28358 1
22687 28356 28359 1
22688 28356 28360 1
22689 28361 28362 1
22690 28361 28363 1
22691 28361 28364 1
22692 28361 28365 1
22693 28366 28367 1
22694 28366 28368 1
22695 28366 28369 1
22696 28366 28370 1
22697 28371 28372 1
22698 28371 28373 1
22699 28371 28374 1
22700 28371 28375 1
22701 28376 28377 1
22702 28376 28378 1
22703 28376 28379 1
22704 28376 28380 1
22705 28381 28382 1
22706 28381 28383 1
22707 28381 28384 1
22708 28381 28385 1
22709 28386 28387 1
22710 28386 28388 1
22711 28386 28389 1
22712 28386 28390 1
22713 28391 28392 1
22714 28391 28393 1
22715 28391 28394 1
22716 28391 28395 1
22717 28396 28397 1
22718 28396 28398 1
22719 28396 28399 1
22720 28396 28400 1
22721 28401 28402 1
22722 28401 28403 1
22723 28401 28404 1
22724 28401 28405 1
22725 28406 28407 1
22726 28406 28408 1
22727 28406 28409 1
22728 28406 28410 1
22729 28411 28412 1
22730 28411 28413 1
22731 28411 28414 1
22732 28411 28415 1
22733 28416 28417 1
22734 28416 28418 1
22735 28416 28419 1
22736 28416 28420 1
22737 28421 28422 1
22738 28421 28423 1
22739 28421 28424 1
22740 28421 28425 1
22741 28426 28427 1
22742 28426 28428 1
22743 28426 28429 1
22744 28426 28430 1
22745 28431 28432 1
22746 28431 28433 1
22747 28431 28434 1
22748 28431 28435 1
22749 28436 28437 1
22750 28436 28438 1
22751 28436 28439 1
22752 28436 28440 1
22753 28441 28442 1
22754 28441 28443 1
22755 28441 28444 1
22756 28441 28445 1
22757 28446 28447 1
22758 28446 28448 1
22759 28446 28449 1
22760 28446 28450 1
22761 28451 28455 1
22762 28451 28453 1
22763 28451 28452 1
22764 28451 28454 1
22765 28456 28457 1
22766 28456 28458 1
22767 28456 28459 1
22768 28456 28460 1
22769 28461 28462 1
22770 28461 28463 1
22771 28461 28464 1
22772 28461 28465 1
22773 28466 28467 1
22774 28466 28468 1
22775 28466 28469 1
22776 28466 28470 1
22777 28471 28472 1
22778 28471 28473 1
22779 28471 28474 1
22780 28471 28475 1
22781 28476 28477 1
22782 28476 28480 1
22783 28476 28478 1
22784 28476 28479 1
22785 28481 28482 1
22786 28481 28483 1
22787 28481 28484 1
22788 28481 28485 1
22789 28486 28487 1
22790 28486 28488 1
22791 28486 28489 1
22792 28486 28490 1
22793 28491 28492 1
22794 28491 28493 1
22795 28491 28494 1
22796 28491 28495 1
22797 28496 28497 1
22798 28496 28498 1
22799 28496 28499 1
22800 28496 28500 1
22801 28501 28502 1
22802 28501 28503 1
22803 28501 28504 1
22804 28501 28505 1
22805 28506 28507 1
22806 28506 28508 1
22807 28506 28509 1
22808 28506 28510 1
22809 28511 28512 1
22810 28511 28513 1
22811 28511 28514 1
22812 28511 28515 1
22813 28516 28517 1
22814 28516 28518 1
22815 28516 28519 1
22816 28516 28520 1
22817 28521 28522 1
22818 28521 28523 1
22819 28521 28524 1
22820 28521 28525 1
22821 28526 28527 1
22822 28526 28528 1
22823 28526 28529 1
22824 28526 28530 1
22825 28531 28532 1
22826 28531 28533 1
22827 28531 28534 1
22828 28531 28535 1
22829 28536 28539 1
22830 28536 28540 1
22831 28536 28538 1
22832 28536 28537 1
22833 28541 28542 1
22834 28541 28543 1
22835 28541 28544 1
22836 28541 28545 1
22837 28546 28547 1
22838 28546 28548 1
22839 28546 28549 1
22840 28546 28550 1
22841 28551 28552 1
22842 28551 28553 1
22843 28551 28554 1
22844 28551 28555 1
22845 28556 28557 1
22846 28556 28558 1
22847 28556 28559 1
22848 28556 28560 1
22849 28561 28562 1
22850 28561 28563 1
22851 28561 28564 1
22852 28561 28565 1
22853 28566 28567 1
22854 28566 28568 1
22855 28566 28569 1
22856 28566 28570 1
22857 28571 28572 1
22858 28571 28573 1
22859 28571 28574 1
22860 28571 28575 1
22861 28576 28577 1
22862 28576 28578 1
22863 28576 28579 1
22864 28576 28580 1
22865 28581 28582 1
22866 28581 28583 1
22867 28581 28584 1
22868 28581 28585 1
22869 28586 28587 1
22870 28586 28588 1
22871 28586 28589 1
22872 28586 28590 1
22873 28591 28592 1
22874 28591 28593 1
22875 28591 28594 1
22876 28591 28595 1
22877 28596 28597 1
22878 28596 28598 1
22879 28596 28599 1
22880 28596 28600 1
22881 28601 28602 1
22882 28601 28603 1
22883 28601 28604 1
22884 28601 28605 1
22885 28606 28607 1
22886 28606 28608 1
22887 28606 28609 1
22888 28606 28610 1
22889 28611 28612 1
22890 28611 28613 1
22891 28611 28614 1
22892 28611 28615 1
22893 28616 28617 1
22894 28616 28618 1
22895 28616 28619 1
22896 28616 28620 1
22897 28621 28623 1
22898 28621 28624 1
22899 28621 28625 1
22900 28621 28622 1
22901 28626 28627 1
22902 28626 28628 1
22903 28626 28629 1
22904 28626 28630 1
22905 28631 28632 1
22906 28631 28633 1
22907 28631 28634 1
22908 28631 28635 1
22909 28636 28637 1
22910 28636 28638 1
22911 28636 28639 1
22912 28636 28640 1
22913 28641 28642 1
22914 28641 28643 1
22915 28641 28644 1
22916 28641 28645 1
22917 28646 28647 1
22918 28646 28648 1
22919 28646 28649 1
22920 28646 28650 1
22921 28651 28652 1
22922 28651 28653 1
22923 28651 28654 1
22924 28651 28655 1
22925 28656 28657 1
22926 28656 28658 1
22927 28656 28659 1
22928 28656 28660 1
22929 28661 28662 1
22930 28661 28663 1
22931 28661 28664 1
22932 28661 28665 1
22933 28666 28667 1
22934 28666 28668 1
22935 28666 28669 1
22936 28666 28670 1
22937 28671 28672 1
22938 28671 28673 1
22939 28671 28674 1
22940 28671 28675 1
22941 28676 28677 1
22942 28676 28678 1
22943 28676 28679 1
22944 28676 28680 1
22945 28681 28682 1
22946 28681 28683 1
22947 28681 28684 1
22948 28681 28685 1
22949 28686 28687 1
22950 28686 28688 1
22951 28686 28689 1
22952 28686 28690 1
22953 28691 28692 1
22954 28691 28693 1
22955 28691 28694 1
22956 28691 28695 1
22957 28696 28697 1
22958 28696 28698 1
22959 28696 28699 1
22960 28696 28700 1
22961 28701 28702 1
22962 28701 28703 1
22963 28701 28704 1
22964 28701 28705 1
22965 28706 28707 1
22966 28706 28708 1
22967 28706 28709 1
22968 28706 28710 1
22969 28711 28712 1
22970 28711 28713 1
22971 28711 28714 1
22972 28711 28715 1
22973 28716 28717 1
22974 28716 28718 1
22975 28716 28719 1
22976 28716 28720 1
22977 28721 28722 1
22978 28721 28723 1
22979 28721 28724 1
22980 28721 28725 1
22981 28726 28727 1
22982 28726 28728 1
22983 28726 28729 1
22984 28726 28730 1
22985 28731 28732 1
22986 28731 28733 1
22987 28731 28734 1
22988 28731 28735 1
22989 28736 28737 1
22990 28736 28738 1
22991 28736 28739 1
22992 28736 28740 1
22993 28741 28742 1
22994 28741 28743 1
22995 28741 28744 1
22996 28741 28745 1
22997 28746 28747 1
22998 28746 28748 1
22999 28746 28749 1
23000 28746 28750 1
23001 28751 28752 1
23002 28751 28753 1
23003 28751 28754 1
23004 28751 28755 1
23005 28756 28757 1
23006 28756 28758 1
23007 28756 28759 1
23008 28756 28760 1
23009 28761 28762 1
23010 28761 28763 1
23011 28761 28764 1
23012 28761 28765 1
23013 28766 28767 1
23014 28766 28768 1
23015 28766 28769 1
23016 28766 28770 1
23017 28771 28772 1
23018 28771 28773 1
23019 28771 28774 1
23020 28771 28775 1
23021 28776 28777 1
23022 28776 28778 1
23023 28776 28779 1
23024 28776 28780 1
23025 28781 28782 1
23026 28781 28783 1
23027 28781 28784 1
23028 28781 28785 1
23029 28786 28787 1
23030 28786 28788 1
23031 28786 28789 1
23032 28786 28790 1
23033 28791 28792 1
23034 28791 28793 1
23035 28791 28794 1
23036 28791 28795 1
23037 28796 28797 1
23038 28796 28798 1
23039 28796 28799 1
23040 28796 28800 1
23041 28801 28802 1
23042 28801 28803 1
23043 28801 28804 1
23044 28801 28805 1
23045 28806 28807 1
23046 28806 28808 1
23047 28806 28809 1
23048 28806 28810 1
23049 28811 28812 1
23050 28811 28813 1
23051 28811 28814 1
23052 28811 28815 1
23053 28816 28817 1
23054 28816 28818 1
23055 28816 28819 1
23056 28816 28820 1
23057 28821 28822 1
23058 28821 28823 1
23059 28821 28824 1
23060 28821 28825 1
23061 28826 28827 1
23062 28826 28828 1
23063 28826 28829 1
23064 28826 28830 1
23065 28831 28832 1
23066 28831 28833 1
23067 28831 28834 1
23068 28831 28835 1
23069 28836 28837 1
23070 28836 28838 1
23071 28836 28839 1
23072 28836 28840 1
23073 28841 28842 1
23074 28841 28843 1
23075 28841 28844 1
23076 28841 28845 1
23077 28846 28847 1
23078 28846 28848 1
23079 28846 28849 1
23080 28846 28850 1
23081 28851 28852 1
23082 28851 28853 1
23083 28851 28854 1
23084 28851 28855 1
23085 28856 28857 1
23086 28856 28858 1
23087 28856 28859 1
23088 28856 28860 1
23089 28861 28862 1
23090 28861 28863 1
23091 28861 28864 1
23092 28861 28865 1
23093 28866 28867 1
23094 28866 28868 1
23095 28866 28869 1
23096 28866 28870 1
23097 28871 28875 1
23098 28871 28872 1
23099 28871 28873 1
23100 28871 28874 1
23101 28876 28877 1
23102 28876 28878 1
23103 28876 28879 1
23104 28876 28880 1
23105 28881 28882 1
23106 28881 28883 1
23107 28881 28884 1
23108 28881 28885 1
23109 28886 28887 1
23110 28886 28888 1
23111 28886 28889 1
23112 28886 28890 1
23113 28891 28892 1
23114 28891 28893 1
23115 28891 28894 1
23116 28891 28895 1
23117 28896 28897 1
23118 28896 28898 1
23119 28896 28899 1
23120 28896 28900 1
23121 28901 28902 1
23122 28901 28903 1
23123 28901 28904 1
23124 28901 28905 1
23125 28906 28907 1
23126 28906 28908 1
23127 28906 28909 1
23128 28906 28910 1
23129 28911 28912 1
23130 28911 28913 1
23131 28911 28914 1
23132 28911 28915 1
23133 28916 28917 1
23134 28916 28918 1
23135 28916 28919 1
23136 28916 28920 1
23137 28921 28922 1
23138 28921 28923 1
23139 28921 28924 1
23140 28921 28925 1
23141 28926 28927 1
23142 28926 28928 1
23143 28926 28929 1
23144 28926 28930 1
23145 28931 28932 1
23146 28931 28933 1
23147 28931 28934 1
23148 28931 28935 1
23149 28936 28937 1
23150 28936 28938 1
23151 28936 28939 1
23152 28936 28940 1
23153 28941 28942 1
23154 28941 28943 1
23155 28941 28944 1
23156 28941 28945 1
23157 28946 28947 1
23158 28946 28948 1
23159 28946 28949 1
23160 28946 28950 1
23161 28951 28952 1
23162 28951 28953 1
23163 28951 28954 1
23164 28951 28955 1
23165 28956 28959 1
23166 28956 28960 1
23167 28956 28957 1
23168 28956 28958 1
23169 28961 28962 1
23170 28961 28963 1
23171 28961 28964 1
23172 28961 28965 1
23173 28966 28967 1
23174 28966 28968 1
23175 28966 28969 1
23176 28966 28970 1
23177 28971 28972 1
23178 28971 28973 1
23179 28971 28974 1
23180 28971 28975 1
23181 28976 28977 1
23182 28976 28978 1
23183 28976 28979 1
23184 28976 28980 1
23185 28981 28982 1
23186 28981 28983 1
23187 28981 28984 1
23188 28981 28985 1
23189 28986 28987 1
23190 28986 28988 1
23191 28986 28989 1
23192 28986 28990 1
23193 28991 28992 1
23194 28991 28993 1
23195 28991 28994 1
23196 28991 28995 1
23197 28996 28997 1
23198 28996 28998 1
23199 28996 28999 1
23200 28996 29000 1
23201 29001 29002 1
23202 29001 29003 1
23203 29001 29004 1
23204 29001 29005 1
23205 29006 29007 1
23206 29006 29008 1
23207 29006 29009 1
23208 29006 29010 1
23209 29011 29012 1
23210 29011 29013 1
23211 29011 29014 1
23212 29011 29015 1
23213 29016 29017 1
23214 29016 29018 1
23215 29016 29019 1
23216 29016 29020 1
23217 29021 29022 1
23218 29021 29023 1
23219 29021 29024 1
23220 29021 29025 1
23221 29026 29027 1
23222 29026 29028 1
23223 29026 29029 1
23224 29026 29030 1
23225 29031 29032 1
23226 29031 29033 1
23227 29031 29034 1
23228 29031 29035 1
23229 29036 29037 1
23230 29036 29038 1
23231 29036 29039 1
23232 29036 29040 1
23233 29041 29043 1
23234 29041 29044 1
23235 29041 29045 1
23236 29041 29042 1
23237 29046 29047 1
23238 29046 29048 1
23239 29046 29049 1
23240 29046 29050 1
23241 29051 29052 1
23242 29051 29053 1
23243 29051 29054 1
23244 29051 29055 1
23245 29056 29057 1
23246 29056 29058 1
23247 29056 29059 1
23248 29056 29060 1
23249 29061 29062 1
23250 29061 29063 1
23251 29061 29064 1
23252 29061 29065 1
23253 29066 29067 1
23254 29066 29068 1
23255 29066 29069 1
23256 29066 29070 1
23257 29071 29072 1
23258 29071 29073 1
23259 29071 29074 1
23260 29071 29075 1
23261 29076 29077 1
23262 29076 29078 1
23263 29076 29079 1
23264 29076 29080 1
23265 29081 29082 1
23266 29081 29083 1
23267 29081 29084 1
23268 29081 29085 1
23269 29086 29087 1
23270 29086 29088 1
23271 29086 29089 1
23272 29086 29090 1
23273 29091 29092 1
23274 29091 29093 1
23275 29091 29094 1
23276 29091 29095 1
23277 29096 29097 1
23278 29096 29098 1
23279 29096 29099 1
23280 29096 29100 1
23281 29101 29102 1
23282 29101 29103 1
23283 29101 29104 1
23284 29101 29105 1
23285 29106 29107 1
23286 29106 29108 1
23287 29106 29109 1
23288 29106 29110 1
23289 29111 29112 1
23290 29111 29113 1
23291 29111 29114 1
23292 29111 29115 1
23293 29116 29117 1
23294 29116 29118 1
23295 29116 29119 1
23296 29116 29120 1
23297 29121 29122 1
23298 29121 29123 1
23299 29121 29124 1
23300 29121 29125 1
23301 29126 29127 1
23302 29126 29128 1
23303 29126 29129 1
23304 29126 29130 1
23305 29131 29132 1
23306 29131 29133 1
23307 29131 29134 1
23308 29131 29135 1
23309 29136 29137 1
23310 29136 29138 1
23311 29136 29139 1
23312 29136 29140 1
23313 29141 29142 1
23314 29141 29143 1
23315 29141 29144 1
23316 29141 29145 1
23317 29146 29147 1
23318 29146 29148 1
23319 29146 29149 1
23320 29146 29150 1
23321 29151 29152 1
23322 29151 29153 1
23323 29151 29154 1
23324 29151 29155 1
23325 29156 29157 1
23326 29156 29158 1
23327 29156 29159 1
23328 29156 29160 1
23329 29161 29162 1
23330 29161 29163 1
23331 29161 29164 1
23332 29161 29165 1
23333 29166 29167 1
23334 29166 29168 1
23335 29166 29169 1
23336 29166 29170 1
23337 29171 29172 1
23338 29171 29173 1
23339 29171 29174 1
23340 29171 29175 1
23341 29176 29177 1
23342 29176 29178 1
23343 29176 29179 1
23344 29176 29180 1
23345 29181 29182 1
23346 29181 29183 1
23347 29181 29184 1
23348 29181 29185 1
23349 29186 29187 1
23350 29186 29188 1
23351 29186 29189 1
23352 29186 29190 1
23353 29191 29192 1
23354 29191 29193 1
23355 29191 29194 1
23356 29191 29195 1
23357 29196 29197 1
23358 29196 29198 1
23359 29196 29199 1
23360 29196 29200 1
23361 29201 29202 1
23362 29201 29203 1
23363 29201 29204 1
23364 29201 29205 1
23365 29206 29207 1
23366 29206 29208 1
23367 29206 29209 1
23368 29206 29210 1
23369 29211 29212 1
23370 29211 29213 1
23371 29211 29214 1
23372 29211 29215 1
23373 29216 29217 1
23374 29216 29218 1
23375 29216 29219 1
23376 29216 29220 1
23377 29221 29222 1
23378 29221 29223 1
23379 29221 29224 1
23380 29221 29225 1
23381 29226 29227 1
23382 29226 29228 1
23383 29226 29229 1
23384 29226 29230 1
23385 29231 29232 1
23386 29231 29233 1
23387 29231 29234 1
23388 29231 29235 1
23389 29236 29237 1
23390 29236 29238 1
23391 29236 29239 1
23392 29236 29240 1
23393 29241 29242 1
23394 29241 29243 1
23395 29241 29244 1
23396 29241 29245 1
23397 29246 29247 1
23398 29246 29248 1
23399 29246 29249 1
23400 29246 29250 1
23401 29251 29252 1
23402 29251 29253 1
23403 29251 29254 1
23404 29251 29255 1
23405 29256 29257 1
23406 29256 29258 1
23407 29256 29259 1
23408 29256 29260 1
23409 29261 29262 1
23410 29261 29263 1
23411 29261 29264 1
23412 29261 29265 1
23413 29266 29267 1
23414 29266 29268 1
23415 29266 29269 1
23416 29266 29270 1
23417 29271 29272 1
23418 29271 29273 1
23419 29271 29274 1
23420 29271 29275 1
23421 29276 29277 1
23422 29276 29278 1
23423 29276 29279 1
23424 29276 29280 1
23425 29281 29282 1
23426 29281 29283 1
23427 29281 29284 1
23428 29281 29285 1
23429 29286 29287 1
23430 29286 29288 1
23431 29286 29289 1
23432 29286 29290 1
23433 29291 29292 1
23434 29291 29293 1
23435 29291 29294 1
23436 29291 29295 1
23437 29296 29297 1
23438 29296 29298 1
23439 29296 29299 1
23440 29296 29300 1
23441 29301 29302 1
23442 29301 29303 1
23443 29301 29304 1
23444 29301 29305 1
23445 29306 29307 1
23446 29306 29308 1
23447 29306 29309 1
23448 29306 29310 1
23449 29311 29312 1
23450 29311 29313 1
23451 29311 29314 1
23452 29311 29315 1
23453 29316 29317 1
23454 29316 29318 1
23455 29316 29319 1
23456 29316 29320 1
23457 29321 29322 1
23458 29321 29323 1
23459 29321 29324 1
23460 29321 29325 1
23461 29326 29327 1
23462 29326 29328 1
23463 29326 29329 1
23464 29326 29330 1
23465 29331 29332 1
23466 29331 29333 1
23467 29331 29334 1
23468 29331 29335 1
23469 29336 29337 1
23470 29336 29338 1
23471 29336 29339 1
23472 29336 29340 1
23473 29341 29342 1
23474 29341 29343 1
23475 29341 29344 1
23476 29341 29345 1
23477 29346 29347 1
23478 29346 29348 1
23479 29346 29349 1
23480 29346 29350 1
23481 29351 29352 1
23482 29351 29353 1
23483 29351 29354 1
23484 29351 29355 1
23485 29356 29357 1
23486 29356 29358 1
23487 29356 29359 1
23488 29356 29360 1
23489 29361 29362 1
23490 29361 29363 1
23491 29361 29364 1
23492 29361 29365 1
23493 29366 29367 1
23494 29366 29368 1
23495 29366 29369 1
23496 29366 29370 1
23497 29371 29372 1
23498 29371 29373 1
23499 29371 29374 1
23500 29371 29375 1
23501 29376 29379 1
23502 29376 29380 1
23503 29376 29377 1
23504 29376 29378 1
23505 29381 29382 1
23506 29381 29383 1
23507 29381 29384 1
23508 29381 29385 1
23509 29386 29387 1
23510 29386 29388 1
23511 29386 29389 1
23512 29386 29390 1
23513 29391 29392 1
23514 29391 29393 1
23515 29391 29394 1
23516 29391 29395 1
23517 29396 29397 1
23518 29396 29398 1
23519 29396 29399 1
23520 29396 29400 1
23521 29401 29402 1
23522 29401 29403 1
23523 29401 29404 1
23524 29401 29405 1
23525 29406 29407 1
23526 29406 29408 1
23527 29406 29409 1
23528 29406 29410 1
23529 29411 29412 1
23530 29411 29413 1
23531 29411 29414 1
23532 29411 29415 1
23533 29416 29417 1
23534 29416 29418 1
23535 29416 29419 1
23536 29416 29420 1
23537 29421 29422 1
23538 29421 29423 1
23539 29421 29424 1
23540 29421 29425 1
23541 29426 29427 1
23542 29426 29428 1
23543 29426 29429 1
23544 29426 29430 1
23545 29431 29432 1
23546 29431 29433 1
23547 29431 29434 1
23548 29431 29435 1
23549 29436 29437 1
23550 29436 29438 1
23551 29436 29439 1
23552 29436 29440 1
23553 29441 29442 1
23554 29441 29443 1
23555 29441 29444 1
23556 29441 29445 1
23557 29446 29447 1
23558 29446 29448 1
23559 29446 29449 1
23560 29446 29450 1
23561 29451 29452 1
23562 29451 29453 1
23563 29451 29454 1
23564 29451 29455 1
23565 29456 29457 1
23566 29456 29458 1
23567 29456 29459 1
23568 29456 29460 1
23569 29461 29463 1
23570 29461 29464 1
23571 29461 29465 1
23572 29461 29462 1
23573 29466 29467 1
23574 29466 29468 1
23575 29466 29469 1
23576 29466 29470 1
23577 29471 29472 1
23578 29471 29473 1
23579 29471 29474 1
23580 29471 29475 1
23581 29476 29477 1
23582 29476 29478 1
23583 29476 29479 1
23584 29476 29480 1
23585 29481 29482 1
23586 29481 29483 1
23587 29481 29484 1
23588 29481 29485 1
23589 29486 29487 1
23590 29486 29488 1
23591 29486 29489 1
23592 29486 29490 1
23593 29491 29492 1
23594 29491 29493 1
23595 29491 29494 1
23596 29491 29495 1
23597 29496 29497 1
23598 29496 29498 1
23599 29496 29499 1
23600 29496 29500 1
23601 29501 29502 1
23602 29501 29503 1
23603 29501 29504 1
23604 29501 29505 1
23605 29506 29507 1
23606 29506 29508 1
23607 29506 29509 1
23608 29506 29510 1
23609 29511 29512 1
23610 29511 29513 1
23611 29511 29514 1
23612 29511 29515 1
23613 29516 29517 1
23614 29516 29518 1
23615 29516 29519 1
23616 29516 29520 1
23617 29521 29522 1
23618 29521 29523 1
23619 29521 29524 1
23620 29521 29525 1
23621 29526 29527 1
23622 29526 29528 1
23623 29526 29529 1
23624 29526 29530 1
23625 29531 29532 1
23626 29531 29533 1
23627 29531 29534 1
23628 29531 29535 1
23629 29536 29537 1
23630 29536 29538 1
23631 29536 29539 1
23632 29536 29540 1
23633 29541 29544 1
23634 29541 29545 1
23635 29541 29542 1
23636 29541 29543 1
23637 29546 29547 1
23638 29546 29548 1
23639 29546 29549 1
23640 29546 29550 1
23641 29551 29552 1
23642 29551 29553 1
23643 29551 29554 1
23644 29551 29555 1
23645 29556 29557 1
23646 29556 29558 1
23647 29556 29559 1
23648 29556 29560 1
23649 29561 29562 1
23650 29561 29563 1
23651 29561 29564 1
23652 29561 29565 1
23653 29566 29567 1
23654 29566 29568 1
23655 29566 29569 1
23656 29566 29570 1
23657 29571 29572 1
23658 29571 29573 1
23659 29571 29574 1
23660 29571 29575 1
23661 29576 29577 1
23662 29576 29578 1
23663 29576 29579 1
23664 29576 29580 1
23665 29581 29582 1
23666 29581 29583 1
23667 29581 29584 1
23668 29581 29585 1
23669 29586 29587 1
23670 29586 29588 1
23671 29586 29589 1
23672 29586 29590 1
23673 29591 29592 1
23674 29591 29593 1
23675 29591 29594 1
23676 29591 29595 1
23677 29596 29597 1
23678 29596 29598 1
23679 29596 29599 1
23680 29596 29600 1
23681 29601 29602 1
23682 29601 29603 1
23683 29601 29604 1
23684 29601 29605 1
23685 29606 29607 1
23686 29606 29608 1
23687 29606 29609 1
23688 29606 29610 1
23689 29611 29612 1
23690 29611 29613 1
23691 29611 29614 1
23692 29611 29615 1
23693 29616 29617 1
23694 29616 29618 1
23695 29616 29619 1
23696 29616 29620 1
23697 29621 29622 1
23698 29621 29623 1
23699 29621 29624 1
23700 29621 29625 1
23701 29626 29627 1
23702 29626 29628 1
23703 29626 29629 1
23704 29626 29630 1
23705 29631 29632 1
23706 29631 29633 1
23707 29631 29634 1
23708 29631 29635 1
23709 29636 29637 1
23710 29636 29638 1
23711 29636 29639 1
23712 29636 29640 1
23713 29641 29642 1
23714 29641 29643 1
23715 29641 29644 1
23716 29641 29645 1
23717 29646 29647 1
23718 29646 29648 1
23719 29646 29649 1
23720 29646 29650 1
23721 29651 29652 1
23722 29651 29653 1
23723 29651 29654 1
23724 29651 29655 1
23725 29656 29657 1
23726 29656 29658 1
23727 29656 29659 1
23728 29656 29660 1
23729 29661 29662 1
23730 29661 29663 1
23731 29661 29664 1
23732 29661 29665 1
23733 29666 29667 1
23734 29666 29668 1
23735 29666 29669 1
23736 29666 29670 1
23737 29671 29672 1
23738 29671 29673 1
23739 29671 29674 1
23740 29671 29675 1
23741 29676 29677 1
23742 29676 29678 1
23743 29676 29679 1
23744 29676 29680 1
23745 29681 29682 1
23746 29681 29683 1
23747 29681 29684 1
23748 29681 29685 1
23749 29686 29687 1
23750 29686 29688 1
23751 29686 29689 1
23752 29686 29690 1
23753 29691 29692 1
23754 29691 29693 1
23755 29691 29694 1
23756 29691 29695 1
23757 29696 29697 1
23758 29696 29698 1
23759 29696 29699 1
23760 29696 29700 1
23761 29701 29702 1
23762 29701 29703 1
23763 29701 29704 1
23764 29701 29705 1
23765 29706 29707 1
23766 29706 29708 1
23767 29706 29709 1
23768 29706 29710 1
23769 29711 29715 1
23770 29711 29712 1
23771 29711 29713 1
23772 29711 29714 1
23773 29716 29717 1
23774 29716 29718 1
23775 29716 29719 1
23776 29716 29720 1
23777 29721 29722 1
23778 29721 29723 1
23779 29721 29724 1
23780 29721 29725 1
23781 29726 29727 1
23782 29726 29728 1
23783 29726 29729 1
23784 29726 29730 1
23785 29731 29732 1
23786 29731 29733 1
23787 29731 29734 1
23788 29731 29735 1
23789 29736 29737 1
23790 29736 29738 1
23791 29736 29739 1
23792 29736 29740 1
23793 29741 29742 1
23794 29741 29743 1
23795 29741 29744 1
23796 29741 29745 1
23797 29746 29747 1
23798 29746 29748 1
23799 29746 29749 1
23800 29746 29750 1
23801 29751 29752 1
23802 29751 29753 1
23803 29751 29754 1
23804 29751 29755 1
23805 29756 29757 1
23806 29756 29758 1
23807 29756 29759 1
23808 29756 29760 1
23809 29761 29762 1
23810 29761 29763 1
23811 29761 29764 1
23812 29761 29765 1
23813 29766 29767 1
23814 29766 29768 1
23815 29766 29769 1
23816 29766 29770 1
23817 29771 29772 1
23818 29771 29773 1
23819 29771 29774 1
23820 29771 29775 1
23821 29776 29777 1
23822 29776 29778 1
23823 29776 29779 1
23824 29776 29780 1
23825 29781 29782 1
23826 29781 29783 1
23827 29781 29784 1
23828 29781 29785 1
23829 29786 29787 1
23830 29786 29788 1
23831 29786 29789 1
23832 29786 29790 1
23833 29791 29792 1
23834 29791 29793 1
23835 29791 29794 1
23836 29791 29795 1
23837 29796 29797 1
23838 29796 29798 1
23839 29796 29799 1
23840 29796 29800 1
23841 29801 29802 1
23842 29801 29803 1
23843 29801 29804 1
23844 29801 29805 1
23845 29806 29807 1
23846 29806 29808 1
23847 29806 29809 1
23848 29806 29810 1
23849 29811 29812 1
23850 29811 29813 1
23851 29811 29814 1
23852 29811 29815 1
23853 29816 29817 1
23854 29816 29818 1
23855 29816 29819 1
23856 29816 29820 1
23857 29821 29822 1
23858 29821 29823 1
23859 29821 29824 1
23860 29821 29825 1
23861 29826 29827 1
23862 29826 29828 1
23863 29826 29829 1
23864 29826 29830 1
23865 29831 29832 1
23866 29831 29833 1
23867 29831 29834 1
23868 29831 29835 1
23869 29836 29837 1
23870 29836 29838 1
23871 29836 29839 1
23872 29836 29840 1
23873 29841 29842 1
23874 29841 29843 1
23875 29841 29844 1
23876 29841 29845 1
23877 29846 29847 1
23878 29846 29848 1
23879 29846 29849 1
23880 29846 29850 1
23881 29851 29852 1
23882 29851 29853 1
23883 29851 29854 1
23884 29851 29855 1
23885 29856 29857 1
23886 29856 29858 1
23887 29856 29859 1
23888 29856 29860 1
23889 29861 29862 1
23890 29861 29863 1
23891 29861 29864 1
23892 29861 29865 1
23893 29866 29867 1
23894 29866 29868 1
23895 29866 29869 1
23896 29866 29870 1
23897 29871 29872 1
23898 29871 29873 1
23899 29871 29874 1
23900 29871 29875 1
23901 29876 29877 1
23902 29876 29878 1
23903 29876 29880 1
23904 29876 29879 1
23905 29881 29883 1
23906 29881 29884 1
23907 29881 29885 1
23908 29881 29882 1
23909 29886 29887 1
23910 29886 29888 1
23911 29886 29889 1
23912 29886 29890 1
23913 29891 29892 1
23914 29891 29893 1
23915 29891 29894 1
23916 29891 29895 1
23917 29896 29897 1
23918 29896 29898 1
23919 29896 29899 1
23920 29896 29900 1
23921 29901 29902 1
23922 29901 29903 1
23923 29901 29904 1
23924 29901 29905 1
23925 29906 29907 1
23926 29906 29908 1
23927 29906 29909 1
23928 29906 29910 1
23929 29911 29912 1
23930 29911 29913 1
23931 29911 29914 1
23932 29911 29915 1
23933 29916 29917 1
23934 29916 29918 1
23935 29916 29919 1
23936 29916 29920 1
23937 29921 29925 1
23938 29921 29922 1
23939 29921 29924 1
23940 29921 29923 1
23941 29926 29927 1
23942 29926 29928 1
23943 29926 29929 1
23944 29926 29930 1
23945 29931 29932 1
23946 29931 29933 1
23947 29931 29934 1
23948 29931 29935 1
23949 29936 29937 1
23950 29936 29938 1
23951 29936 29939 1
23952 29936 29940 1
23953 29941 29942 1
23954 29941 29943 1
23955 29941 29944 1
23956 29941 29945 1
23957 29946 29947 1
23958 29946 29948 1
23959 29946 29950 1
23960 29946 29949 1
23961 29951 29952 1
23962 29951 29953 1
23963 29951 29954 1
23964 29951 29955 1
23965 29956 29957 1
23966 29956 29958 1
23967 29956 29959 1
23968 29956 29960 1
23969 29961 29962 1
23970 29961 29963 1
23971 29961 29964 1
23972 29961 29965 1
23973 29966 29967 1
23974 29966 29968 1
23975 29966 29969 1
23976 29966 29970 1
23977 29971 29972 1
23978 29971 29973 1
23979 29971 29974 1
23980 29971 29975 1
23981 29976 29977 1
23982 29976 29978 1
23983 29976 29979 1
23984 29976 29980 1
23985 29981 29982 1
23986 29981 29983 1
23987 29981 29984 1
23988 29981 29985 1
23989 29986 29987 1
23990 29986 29988 1
23991 29986 29989 1
23992 29986 29990 1
23993 29991 29992 1
23994 29991 29993 1
23995 29991 29994 1
23996 29991 29995 1
23997 29996 29997 1
23998 29996 29998 1
23999 29996 29999 1
24000 29996 30000 1
24001 30001 30002 1
24002 30001 30003 1
24003 30001 30004 1
24004 30001 30005 1
24005 30006 30007 1
24006 30006 30008 1
24007 30006 30009 1
24008 30006 30010 1
24009 30011 30012 1
24010 30011 30013 1
24011 30011 30014 1
24012 30011 30015 1
24013 30016 30017 1
24014 30016 30018 1
24015 30016 30019 1
24016 30016 30020 1
24017 30021 30022 1
24018 30021 30023 1
24019 30021 30024 1
24020 30021 30025 1
24021 30026 30027 1
24022 30026 30028 1
24023 30026 30029 1
24024 30026 30030 1
24025 30031 30032 1
24026 30031 30033 1
24027 30031 30034 1
24028 30031 30035 1
24029 30036 30037 1
24030 30036 30038 1
24031 30036 30039 1
24032 30036 30040 1
24033 30041 30042 1
24034 30041 30043 1
24035 30041 30044 1
24036 30041 30045 1
24037 30046 30047 1
24038 30046 30048 1
24039 30046 30049 1
24040 30046 30050 1
24041 30051 30052 1
24042 30051 30053 1
24043 30051 30054 1
24044 30051 30055 1
24045 30056 30057 1
24046 30056 30058 1
24047 30056 30059 1
24048 30056 30060 1
24049 30061 30062 1
24050 30061 30063 1
24051 30061 30064 1
24052 30061 30065 1
24053 30066 30067 1
24054 30066 30068 1
24055 30066 30069 1
24056 30066 30070 1
24057 30071 30072 1
24058 30071 30073 1
24059 30071 30074 1
24060 30071 30075 1
24061 30076 30077 1
24062 30076 30078 1
24063 30076 30079 1
24064 30076 30080 1
24065 30081 30082 1
24066 30081 30083 1
24067 30081 30084 1
24068 30081 30085 1
24069 30086 30087 1
24070 30086 30088 1
24071 30086 30089 1
24072 30086 30090 1
24073 30091 30092 1
24074 30091 30093 1
24075 30091 30094 1
24076 30091 30095 1
24077 30096 30097 1
24078 30096 30098 1
24079 30096 30099 1
24080 30096 30100 1
24081 30101 30102 1
24082 30101 30103 1
24083 30101 30104 1
24084 30101 30105 1
24085 30106 30107 1
24086 30106 30108 1
24087 30106 30109 1
24088 30106 30110 1
24089 30111 30112 1
24090 30111 30113 1
24091 30111 30114 1
24092 30111 30115 1
24093 30116 30117 1
24094 30116 30118 1
24095 30116 30119 1
24096 30116 30120 1
24097 30121 30122 1
24098 30121 30123 1
24099 30121 30124 1
24100 30121 30125 1
24101 30126 30127 1
24102 30126 30128 1
24103 30126 30129 1
24104 30126 30130 1
24105 30131 30135 1
24106 30131 30132 1
24107 30131 30133 1
24108 30131 30134 1
24109 30136 30137 1
24110 30136 30138 1
24111 30136 30139 1
24112 30136 30140 1
24113 30141 30142 1
24114 30141 30143 1
24115 30141 30144 1
24116 30141 30145 1
24117 30146 30147 1
24118 30146 30148 1
24119 30146 30149 1
24120 30146 30150 1
24121 30151 30152 1
24122 30151 30153 1
24123 30151 30154 1
24124 30151 30155 1
24125 30156 30157 1
24126 30156 30158 1
24127 30156 30159 1
24128 30156 30160 1
24129 30161 30162 1
24130 30161 30163 1
24131 30161 30164 1
24132 30161 30165 1
24133 30166 30167 1
24134 30166 30168 1
24135 30166 30169 1
24136 30166 30170 1
24137 30171 30172 1
24138 30171 30173 1
24139 30171 30174 1
24140 30171 30175 1
24141 30176 30177 1
24142 30176 30178 1
24143 30176 30179 1
24144 30176 30180 1
24145 30181 30182 1
24146 30181 30183 1
24147 30181 30184 1
24148 30181 30185 1
24149 30186 30187 1
24150 30186 30188 1
24151 30186 30189 1
24152 30186 30190 1
24153 30191 30192 1
24154 30191 30193 1
24155 30191 30194 1
24156 30191 30195 1
24157 30196 30197 1
24158 30196 30198 1
24159 30196 30199 1
24160 30196 30200 1
24161 30201 30202 1
24162 30201 30203 1
24163 30201 30204 1
24164 30201 30205 1
24165 30206 30207 1
24166 30206 30208 1
24167 30206 30209 1
24168 30206 30210 1
24169 30211 30212 1
24170 30211 30213 1
24171 30211 30214 1
24172 30211 30215 1
24173 30216 30219 1
24174 30216 30220 1
24175 30216 30217 1
24176 30216 30218 1
24177 30221 30222 1
24178 30221 30223 1
24179 30221 30224 1
24180 30221 30225 1
24181 30226 30227 1
24182 30226 30228 1
24183 30226 30229 1
24184 30226 30230 1
24185 30231 30232 1
24186 30231 30233 1
24187 30231 30234 1
24188 30231 30235 1
24189 30236 30237 1
24190 30236 30238 1
24191 30236 30239 1
24192 30236 30240 1
24193 30241 30242 1
24194 30241 30243 1
24195 30241 30244 1
24196 30241 30245 1
24197 30246 30247 1
24198 30246 30248 1
24199 30246 30249 1
24200 30246 30250 1
24201 30251 30252 1
24202 30251 30253 1
24203 30251 30254 1
24204 30251 30255 1
24205 30256 30257 1
24206 30256 30258 1
24207 30256 30259 1
24208 30256 30260 1
24209 30261 30262 1
24210 30261 30263 1
24211 30261 30264 1
24212 30261 30265 1
24213 30266 30267 1
24214 30266 30268 1
24215 30266 30269 1
24216 30266 30270 1
24217 30271 30272 1
24218 30271 30273 1
24219 30271 30274 1
24220 30271 30275 1
24221 30276 30277 1
24222 30276 30278 1
24223 30276 30279 1
24224 30276 30280 1
24225 30281 30282 1
24226 30281 30283 1
24227 30281 30284 1
24228 30281 30285 1
24229 30286 30287 1
24230 30286 30288 1
24231 30286 30289 1
24232 30286 30290 1
24233 30291 30292 1
24234 30291 30293 1
24235 30291 30294 1
24236 30291 30295 1
24237 30296 30297 1
24238 30296 30298 1
24239 30296 30299 1
24240 30296 30300 1
24241 30301 30302 1
24242 30301 30303 1
24243 30301 30304 1
24244 30301 30305 1
24245 30306 30307 1
24246 30306 30308 1
24247 30306 30309 1
24248 30306 30310 1
24249 30311 30312 1
24250 30311 30313 1
24251 30311 30314 1
24252 30311 30315 1
24253 30316 30317 1
24254 30316 30318 1
24255 30316 30319 1
24256 30316 30320 1
24257 30321 30322 1
24258 30321 30323 1
24259 30321 30324 1
24260 30321 30325 1
24261 30326 30327 1
24262 30326 30328 1
24263 30326 30329 1
24264 30326 30330 1
24265 30331 30332 1
24266 30331 30333 1
24267 30331 30334 1
24268 30331 30335 1
24269 30336 30337 1
24270 30336 30338 1
24271 30336 30339 1
24272 30336 30340 1
24273 30341 30342 1
24274 30341 30343 1
24275 30341 30344 1
24276 30341 30345 1
24277 30346 30347 1
24278 30346 30348 1
24279 30346 30349 1
24280 30346 30350 1
24281 30351 30352 1
24282 30351 30353 1
24283 30351 30354 1
24284 30351 30355 1
24285 30356 30357 1
24286 30356 30358 1
24287 30356 30359 1
24288 30356 30360 1
24289 30361 30362 1
24290 30361 30363 1
24291 30361 30364 1
24292 30361 30365 1
24293 30366 30367 1
24294 30366 30368 1
24295 30366 30369 1
24296 30366 30370 1
24297 30371 30372 1
24298 30371 30373 1
24299 30371 30374 1
24300 30371 30375 1
24301 30376 30377 1
24302 30376 30378 1
24303 30376 30379 1
24304 30376 30380 1
24305 30381 30384 1
24306 30381 30385 1
24307 30381 30382 1
24308 30381 30383 1
24309 30386 30387 1
24310 30386 30388 1
24311 30386 30389 1
24312 30386 30390 1
24313 30391 30392 1
24314 30391 30393 1
24315 30391 30394 1
24316 30391 30395 1
24317 30396 30397 1
24318 30396 30398 1
24319 30396 30399 1
24320 30396 30400 1
24321 30401 30402 1
24322 30401 30403 1
24323 30401 30404 1
24324 30401 30405 1
24325 30406 30407 1
24326 30406 30408 1
24327 30406 30409 1
24328 30406 30410 1
24329 30411 30412 1
24330 30411 30413 1
24331 30411 30414 1
24332 30411 30415 1
24333 30416 30417 1
24334 30416 30418 1
24335 30416 30419 1
24336 30416 30420 1
24337 30421 30422 1
24338 30421 30423 1
24339 30421 30424 1
24340 30421 30425 1
24341 30426 30429 1
24342 30426 30430 1
24343 30426 30427 1
24344 30426 30428 1
24345 30431 30432 1
24346 30431 30433 1
24347 30431 30434 1
24348 30431 30435 1
24349 30436 30437 1
24350 30436 30438 1
24351 30436 30439 1
24352 30436 30440 1
24353 30441 30442 1
24354 30441 30443 1
24355 30441 30444 1
24356 30441 30445 1
24357 30446 30447 1
24358 30446 30448 1
24359 30446 30449 1
24360 30446 30450 1
24361 30451 30452 1
24362 30451 30453 1
24363 30451 30454 1
24364 30451 30455 1
24365 30456 30457 1
24366 30456 30458 1
24367 30456 30459 1
24368 30456 30460 1
24369 30461 30462 1
24370 30461 30463 1
24371 30461 30464 1
24372 30461 30465 1
24373 30466 30467 1
24374 30466 30468 1
24375 30466 30469 1
24376 30466 30470 1
24377 30471 30472 1
24378 30471 30473 1
24379 30471 30474 1
24380 30471 30475 1
24381 30476 30477 1
24382 30476 30478 1
24383 30476 30479 1
24384 30476 30480 1
24385 30481 30482 1
24386 30481 30483 1
24387 30481 30484 1
24388 30481 30485 1
24389 30486 30487 1
24390 30486 30488 1
24391 30486 30489 1
24392 30486 30490 1
24393 30491 30492 1
24394 30491 30493 1
24395 30491 30494 1
24396 30491 30495 1
24397 30496 30497 1
24398 30496 30498 1
24399 30496 30499 1
24400 30496 30500 1
24401 30501 30502 1
24402 30501 30503 1
24403 30501 30504 1
24404 30501 30505 1
24405 30506 30507 1
24406 30506 30508 1
24407 30506 30509 1
24408 30506 30510 1
24409 30511 30513 1
24410 30511 30514 1
24411 30511 30515 1
24412 30511 30512 1
24413 30516 30517 1
24414 30516 30518 1
24415 30516 30519 1
24416 30516 30520 1
24417 30521 30522 1
24418 30521 30523 1
24419 30521 30524 1
24420 30521 30525 1
24421 30526 30527 1
24422 30526 30528 1
24423 30526 30529 1
24424 30526 30530 1
24425 30531 30532 1
24426 30531 30533 1
24427 30531 30534 1
24428 30531 30535 1
24429 30536 30537 1
24430 30536 30538 1
24431 30536 30539 1
24432 30536 30540 1
24433 30541 30542 1
24434 30541 30543 1
24435 30541 30544 1
24436 30541 30545 1
24437 30546 30547 1
24438 30546 30548 1
24439 30546 30549 1
24440 30546 30550 1
24441 30551 30555 1
24442 30551 30552 1
24443 30551 30553 1
24444 30551 30554 1
24445 30556 30557 1
24446 30556 30558 1
24447 30556 30559 1
24448 30556 30560 1
24449 30561 30562 1
24450 30561 30563 1
24451 30561 30564 1
24452 30561 30565 1
24453 30566 30567 1
24454 30566 30568 1
24455 30566 30569 1
24456 30566 30570 1
24457 30571 30572 1
24458 30571 30573 1
24459 30571 30574 1
24460 30571 30575 1
24461 30576 30577 1
24462 30576 30578 1
24463 30576 30579 1
24464 30576 30580 1
24465 30581 30582 1
24466 30581 30583 1
24467 30581 30584 1
24468 30581 30585 1
24469 30586 30588 1
24470 30586 30587 1
24471 30586 30589 1
24472 30586 30590 1
24473 30591 30592 1
24474 30591 30593 1
24475 30591 30594 1
24476 30591 30595 1
24477 30596 30597 1
24478 30596 30598 1
24479 30596 30599 1
24480 30596 30600 1
24481 30601 30602 1
24482 30601 30603 1
24483 30601 30604 1
24484 30601 30605 1
24485 30606 30607 1
24486 30606 30608 1
24487 30606 30609 1
24488 30606 30610 1
24489 30611 30612 1
24490 30611 30613 1
24491 30611 30614 1
24492 30611 30615 1
24493 30616 30617 1
24494 30616 30618 1
24495 30616 30619 1
24496 30616 30620 1
24497 30621 30622 1
24498 30621 30623 1
24499 30621 30624 1
24500 30621 30625 1
24501 30626 30627 1
24502 30626 30628 1
24503 30626 30629 1
24504 30626 30630 1
24505 30631 30632 1
24506 30631 30633 1
24507 30631 30634 1
24508 30631 30635 1
24509 30636 30639 1
24510 30636 30640 1
24511 30636 30637 1
24512 30636 30638 1
24513 30641 30642 1
24514 30641 30643 1
24515 30641 30644 1
24516 30641 30645 1
24517 30646 30647 1
24518 30646 30648 1
24519 30646 30649 1
24520 30646 30650 1
24521 30651 30652 1
24522 30651 30653 1
24523 30651 30654 1
24524 30651 30655 1
24525 30656 30657 1
24526 30656 30658 1
24527 30656 30659 1
24528 30656 30660 1
24529 30661 30662 1
24530 30661 30663 1
24531 30661 30664 1
24532 30661 30665 1
24533 30666 30667 1
24534 30666 30668 1
24535 30666 30669 1
24536 30666 30670 1
24537 30671 30672 1
24538 30671 30673 1
24539 30671 30674 1
24540 30671 30675 1
24541 30676 30677 1
24542 30676 30678 1
24543 30676 30679 1
24544 30676 30680 1
24545 30681 30682 1
24546 30681 30683 1
24547 30681 30684 1
24548 30681 30685 1
24549 30686 30687 1
24550 30686 30688 1
24551 30686 30689 1
24552 30686 30690 1
24553 30691 30692 1
24554 30691 30693 1
24555 30691 30694 1
24556 30691 30695 1
24557 30696 30697 1
24558 30696 30698 1
24559 30696 30699 1
24560 30696 30700 1
24561 30701 30702 1
24562 30701 30703 1
24563 30701 30704 1
24564 30701 30705 1
24565 30706 30707 1
24566 30706 30708 1
24567 30706 30709 1
24568 30706 30710 1
24569 30711 30712 1
24570 30711 30713 1
24571 30711 30714 1
24572 30711 30715 1
24573 30716 30717 1
24574 30716 30718 1
24575 30716 30719 1
24576 30716 30720 1
24577 30721 30723 1
24578 30721 30724 1
24579 30721 30725 1
24580 30721 30722 1
24581 30726 30727 1
24582 30726 30728 1
24583 30726 30729 1
24584 30726 30730 1
24585 30731 30732 1
24586 30731 30733 1
24587 30731 30734 1
24588 30731 30735 1
24589 30736 30737 1
24590 30736 30738 1
24591 30736 30739 1
24592 30736 30740 1
24593 30741 30742 1
24594 30741 30743 1
24595 30741 30744 1
24596 30741 30745 1
24597 30746 30747 1
24598 30746 30748 1
24599 30746 30749 1
24600 30746 30750 1
24601 30751 30752 1
24602 30751 30753 1
24603 30751 30754 1
24604 30751 30755 1
24605 30756 30757 1
24606 30756 30758 1
24607 30756 30759 1
24608 30756 30760 1
24609 30761 30762 1
24610 30761 30763 1
24611 30761 30764 1
24612 30761 30765 1
24613 30766 30767 1
24614 30766 30768 1
24615 30766 30769 1
24616 30766 30770 1
24617 30771 30772 1
24618 30771 30773 1
24619 30771 30774 1
24620 30771 30775 1
24621 30776 30777 1
24622 30776 30778 1
24623 30776 30779 1
24624 30776 30780 1
24625 30781 30782 1
24626 30781 30783 1
24627 30781 30784 1
24628 30781 30785 1
24629 30786 30787 1
24630 30786 30788 1
24631 30786 30789 1
24632 30786 30790 1
24633 30791 30792 1
24634 30791 30793 1
24635 30791 30794 1
24636 30791 30795 1
24637 30796 30797 1
24638 30796 30798 1
24639 30796 30799 1
24640 30796 30800 1
24641 30801 30802 1
24642 30801 30803 1
24643 30801 30804 1
24644 30801 30805 1
24645 30806 30807 1
24646 30806 30808 1
24647 30806 30809 1
24648 30806 30810 1
24649 30811 30812 1
24650 30811 30813 1
24651 30811 30814 1
24652 30811 30815 1
24653 30816 30817 1
24654 30816 30818 1
24655 30816 30819 1
24656 30816 30820 1
24657 30821 30822 1
24658 30821 30823 1
24659 30821 30824 1
24660 30821 30825 1
24661 30826 30827 1
24662 30826 30828 1
24663 30826 30829 1
24664 30826 30830 1
24665 30831 30832 1
24666 30831 30833 1
24667 30831 30834 1
24668 30831 30835 1
24669 30836 30837 1
24670 30836 30838 1
24671 30836 30839 1
24672 30836 30840 1
24673 30841 30842 1
24674 30841 30843 1
24675 30841 30844 1
24676 30841 30845 1
24677 30846 30849 1
24678 30846 30850 1
24679 30846 30847 1
24680 30846 30848 1
24681 30851 30852 1
24682 30851 30853 1
24683 30851 30854 1
24684 30851 30855 1
24685 30856 30857 1
24686 30856 30858 1
24687 30856 30859 1
24688 30856 30860 1
24689 30861 30862 1
24690 30861 30863 1
24691 30861 30864 1
24692 30861 30865 1
24693 30866 30867 1
24694 30866 30868 1
24695 30866 30869 1
24696 30866 30870 1
24697 30871 30872 1
24698 30871 30873 1
24699 30871 30874 1
24700 30871 30875 1
24701 30876 30877 1
24702 30876 30878 1
24703 30876 30879 1
24704 30876 30880 1
24705 30881 30882 1
24706 30881 30883 1
24707 30881 30884 1
24708 30881 30885 1
24709 30886 30887 1
24710 30886 30888 1
24711 30886 30889 1
24712 30886 30890 1
24713 30891 30893 1
24714 30891 30894 1
24715 30891 30895 1
24716 30891 30892 1
24717 30896 30897 1
24718 30896 30898 1
24719 30896 30899 1
24720 30896 30900 1
24721 30901 30902 1
24722 30901 30903 1
24723 30901 30904 1
24724 30901 30905 1
24725 30906 30907 1
24726 30906 30908 1
24727 30906 30909 1
24728 30906 30910 1
24729 30911 30912 1
24730 30911 30913 1
24731 30911 30914 1
24732 30911 30915 1
24733 30916 30917 1
24734 30916 30918 1
24735 30916 30919 1
24736 30916 30920 1
24737 30921 30922 1
24738 30921 30923 1
24739 30921 30924 1
24740 30921 30925 1
24741 30926 30927 1
24742 30926 30928 1
24743 30926 30929 1
24744 30926 30930 1
24745 30931 30932 1
24746 30931 30933 1
24747 30931 30934 1
24748 30931 30935 1
24749 30936 30937 1
24750 30936 30938 1
24751 30936 30939 1
24752 30936 30940 1
24753 30941 30943 1
24754 30941 30944 1
24755 30941 30942 1
24756 30941 30945 1
24757 30946 30947 1
24758 30946 30948 1
24759 30946 30949 1
24760 30946 30950 1
24761 30951 30952 1
24762 30951 30953 1
24763 30951 30954 1
24764 30951 30955 1
24765 30956 30957 1
24766 30956 30958 1
24767 30956 30959 1
24768 30956 30960 1
24769 30961 30962 1
24770 30961 30963 1
24771 30961 30964 1
24772 30961 30965 1
24773 30966 30967 1
24774 30966 30968 1
24775 30966 30969 1
24776 30966 30970 1
24777 30971 30975 1
24778 30971 30972 1
24779 30971 30973 1
24780 30971 30974 1
24781 30976 30977 1
24782 30976 30978 1
24783 30976 30979 1
24784 30976 30980 1
24785 30981 30982 1
24786 30981 30983 1
24787 30981 30984 1
24788 30981 30985 1
24789 30986 30987 1
24790 30986 30988 1
24791 30986 30989 1
24792 30986 30990 1
24793 30991 30992 1
24794 30991 30993 1
24795 30991 30994 1
24796 30991 30995 1
24797 30996 30997 1
24798 30996 30998 1
24799 30996 30999 1
24800 30996 31000 1
24801 31001 31002 1
24802 31001 31003 1
24803 31001 31004 1
24804 31001 31005 1
24805 31006 31007 1
24806 31006 31008 1
24807 31006 31009 1
24808 31006 31010 1
24809 31011 31012 1
24810 31011 31013 1
24811 31011 31014 1
24812 31011 31015 1
24813 31016 31017 1
24814 31016 31018 1
24815 31016 31019 1
24816 31016 31020 1
24817 31021 31022 1
24818 31021 31023 1
24819 31021 31024 1
24820 31021 31025 1
24821 31026 31027 1
24822 31026 31028 1
24823 31026 31029 1
24824 31026 31030 1
24825 31031 31032 1
24826 31031 31033 1
24827 31031 31034 1
24828 31031 31035 1
24829 31036 31037 1
24830 31036 31038 1
24831 31036 31039 1
24832 31036 31040 1
24833 31041 31042 1
24834 31041 31043 1
24835 31041 31044 1
24836 31041 31045 1
24837 31046 31047 1
24838 31046 31048 1
24839 31046 31049 1
24840 31046 31050 1
24841 31051 31052 1
24842 31051 31053 1
24843 31051 31054 1
24844 31051 31055 1
24845 31056 31059 1
24846 31056 31060 1
24847 31056 31057 1
24848 31056 31058 1
24849 31061 31062 1
24850 31061 31063 1
24851 31061 31064 1
24852 31061 31065 1
24853 31066 31067 1
24854 31066 31068 1
24855 31066 31069 1
24856 31066 31070 1
24857 31071 31072 1
24858 31071 31073 1
24859 31071 31074 1
24860 31071 31075 1
24861 31076 31077 1
24862 31076 31078 1
24863 31076 31079 1
24864 31076 31080 1
24865 31081 31082 1
24866 31081 31083 1
24867 31081 31084 1
24868 31081 31085 1
24869 31086 31087 1
24870 31086 31088 1
24871 31086 31089 1
24872 31086 31090 1
24873 31091 31092 1
24874 31091 31093 1
24875 31091 31094 1
24876 31091 31095 1
24877 31096 31097 1
24878 31096 31098 1
24879 31096 31099 1
24880 31096 31100 1
24881 31101 31102 1
24882 31101 31103 1
24883 31101 31104 1
24884 31101 31105 1
24885 31106 31107 1
24886 31106 31108 1
24887 31106 31109 1
24888 31106 31110 1
24889 31111 31112 1
24890 31111 31113 1
24891 31111 31114 1
24892 31111 31115 1
24893 31116 31117 1
24894 31116 31118 1
24895 31116 31119 1
24896 31116 31120 1
24897 31121 31122 1
24898 31121 31123 1
24899 31121 31124 1
24900 31121 31125 1
24901 31126 31127 1
24902 31126 31128 1
24903 31126 31129 1
24904 31126 31130 1
24905 31131 31132 1
24906 31131 31133 1
24907 31131 31134 1
24908 31131 31135 1
24909 31136 31137 1
24910 31136 31138 1
24911 31136 31139 1
24912 31136 31140 1
24913 31141 31143 1
24914 31141 31144 1
24915 31141 31145 1
24916 31141 31142 1
24917 31146 31147 1
24918 31146 31148 1
24919 31146 31149 1
24920 31146 31150 1
24921 31151 31152 1
24922 31151 31153 1
24923 31151 31154 1
24924 31151 31155 1
24925 31156 31157 1
24926 31156 31158 1
24927 31156 31159 1
24928 31156 31160 1
24929 31161 31162 1
24930 31161 31163 1
24931 31161 31164 1
24932 31161 31165 1
24933 31166 31167 1
24934 31166 31168 1
24935 31166 31169 1
24936 31166 31170 1
24937 31171 31172 1
24938 31171 31173 1
24939 31171 31174 1
24940 31171 31175 1
24941 31176 31177 1
24942 31176 31178 1
24943 31176 31179 1
24944 31176 31180 1
24945 31181 31182 1
24946 31181 31183 1
24947 31181 31184 1
24948 31181 31185 1
24949 31186 31187 1
24950 31186 31188 1
24951 31186 31189 1
24952 31186 31190 1
24953 31191 31192 1
24954 31191 31193 1
24955 31191 31195 1
24956 31191 31194 1
24957 31196 31197 1
24958 31196 31198 1
24959 31196 31199 1
24960 31196 31200 1
24961 31201 31202 1
24962 31201 31203 1
24963 31201 31204 1
24964 31201 31205 1
24965 31206 31207 1
24966 31206 31208 1
24967 31206 31209 1
24968 31206 31210 1
24969 31211 31212 1
24970 31211 31213 1
24971 31211 31214 1
24972 31211 31215 1
24973 31216 31217 1
24974 31216 31218 1
24975 31216 31219 1
24976 31216 31220 1
24977 31221 31222 1
24978 31221 31223 1
24979 31221 31224 1
24980 31221 31225 1
24981 31226 31227 1
24982 31226 31228 1
24983 31226 31229 1
24984 31226 31230 1
24985 31231 31232 1
24986 31231 31233 1
24987 31231 31234 1
24988 31231 31235 1
24989 31236 31237 1
24990 31236 31238 1
24991 31236 31239 1
24992 31236 31240 1
24993 31241 31242 1
24994 31241 31243 1
24995 31241 31244 1
24996 31241 31245 1
24997 31246 31247 1
24998 31246 31248 1
24999 31246 31249 1
25000 31246 31250 1
25001 31251 31252 1
25002 31251 31253 1
25003 31251 31254 1
25004 31251 31255 1
25005 31256 31257 1
25006 31256 31258 1
25007 31256 31259 1
25008 31256 31260 1
25009 31261 31262 1
25010 31261 31263 1
25011 31261 31264 1
25012 31261 31265 1
25013 31266 31267 1
25014 31266 31268 1
25015 31266 31269 1
25016 31266 31270 1
25017 31271 31272 1
25018 31271 31273 1
25019 31271 31274 1
25020 31271 31275 1
25021 31276 31277 1
25022 31276 31278 1
25023 31276 31279 1
25024 31276 31280 1
25025 31281 31282 1
25026 31281 31283 1
25027 31281 31284 1
25028 31281 31285 1
25029 31286 31287 1
25030 31286 31288 1
25031 31286 31289 1
25032 31286 31290 1
25033 31291 31292 1
25034 31291 31293 1
25035 31291 31294 1
25036 31291 31295 1
25037 31296 31297 1
25038 31296 31298 1
25039 31296 31299 1
25040 31296 31300 1
25041 31301 31302 1
25042 31301 31303 1
25043 31301 31304 1
25044 31301 31305 1
25045 31306 31307 1
25046 31306 31308 1
25047 31306 31309 1
25048 31306 31310 1
25049 31311 31312 1
25050 31311 31313 1
25051 31311 31314 1
25052 31311 31315 1
25053 31316 31317 1
25054 31316 31318 1
25055 31316 31319 1
25056 31316 31320 1
25057 31321 31322 1
25058 31321 31323 1
25059 31321 31324 1
25060 31321 31325 1
25061 31326 31327 1
25062 31326 31328 1
25063 31326 31329 1
25064 31326 31330 1
25065 31331 31332 1
25066 31331 31333 1
25067 31331 31334 1
25068 31331 31335 1
25069 31336 31337 1
25070 31336 31338 1
25071 31336 31339 1
25072 31336 31340 1
25073 31341 31342 1
25074 31341 31343 1
25075 31341 31344 1
25076 31341 31345 1
25077 31346 31347 1
25078 31346 31348 1
25079 31346 31349 1
25080 31346 31350 1
25081 31351 31352 1
25082 31351 31353 1
25083 31351 31354 1
25084 31351 31355 1
25085 31356 31357 1
25086 31356 31358 1
25087 31356 31359 1
25088 31356 31360 1
25089 31361 31362 1
25090 31361 31363 1
25091 31361 31364 1
25092 31361 31365 1
25093 31366 31367 1
25094 31366 31368 1
25095 31366 31369 1
25096 31366 31370 1
25097 31371 31372 1
25098 31371 31373 1
25099 31371 31374 1
25100 31371 31375 1
25101 31376 31377 1
25102 31376 31378 1
25103 31376 31379 1
25104 31376 31380 1
25105 31381 31382 1
25106 31381 31383 1
25107 31381 31384 1
25108 31381 31385 1
25109 31386 31387 1
25110 31386 31388 1
25111 31386 31389 1
25112 31386 31390 1
25113 31391 31392 1
25114 31391 31395 1
25115 31391 31393 1
25116 31391 31394 1
25117 31396 31397 1
25118 31396 31398 1
25119 31396 31399 1
25120 31396 31400 1
25121 31401 31402 1
25122 31401 31403 1
25123 31401 31404 1
25124 31401 31405 1
25125 31406 31407 1
25126 31406 31408 1
25127 31406 31409 1
25128 31406 31410 1
25129 31411 31412 1
25130 31411 31413 1
25131 31411 31414 1
25132 31411 31415 1
25133 31416 31417 1
25134 31416 31418 1
25135 31416 31419 1
25136 31416 31420 1
25137 31421 31422 1
25138 31421 31423 1
25139 31421 31424 1
25140 31421 31425 1
25141 31426 31427 1
25142 31426 31428 1
25143 31426 31429 1
25144 31426 31430 1
25145 31431 31432 1
25146 31431 31433 1
25147 31431 31434 1
25148 31431 31435 1
25149 31436 31437 1
25150 31436 31438 1
25151 31436 31439 1
25152 31436 31440 1
25153 31441 31442 1
25154 31441 31443 1
25155 31441 31444 1
25156 31441 31445 1
25157 31446 31447 1
25158 31446 31448 1
25159 31446 31449 1
25160 31446 31450 1
25161 31451 31452 1
25162 31451 31453 1
25163 31451 31454 1
25164 31451 31455 1
25165 31456 31457 1
25166 31456 31458 1
25167 31456 31459 1
25168 31456 31460 1
25169 31461 31462 1
25170 31461 31463 1
25171 31461 31464 1
25172 31461 31465 1
25173 31466 31467 1
25174 31466 31468 1
25175 31466 31469 1
25176 31466 31470 1
25177 31471 31472 1
25178 31471 31473 1
25179 31471 31474 1
25180 31471 31475 1
25181 31476 31479 1
25182 31476 31480 1
25183 31476 31477 1
25184 31476 31478 1
25185 31481 31482 1
25186 31481 31483 1
25187 31481 31484 1
25188 31481 31485 1
25189 31486 31487 1
25190 31486 31488 1
25191 31486 31489 1
25192 31486 31490 1
25193 31491 31492 1
25194 31491 31493 1
25195 31491 31494 1
25196 31491 31495 1
25197 31496 31497 1
25198 31496 31498 1
25199 31496 31499 1
25200 31496 31500 1
25201 31501 31502 1
25202 31501 31503 1
25203 31501 31504 1
25204 31501 31505 1
25205 31506 31507 1
25206 31506 31508 1
25207 31506 31509 1
25208 31506 31510 1
25209 31511 31512 1
25210 31511 31513 1
25211 31511 31514 1
25212 31511 31515 1
25213 31516 31518 1
25214 31516 31519 1
25215 31516 31517 1
25216 31516 31520 1
25217 31521 31522 1
25218 31521 31523 1
25219 31521 31524 1
25220 31521 31525 1
25221 31526 31527 1
25222 31526 31528 1
25223 31526 31529 1
25224 31526 31530 1
25225 31531 31532 1
25226 31531 31533 1
25227 31531 31534 1
25228 31531 31535 1
25229 31536 31537 1
25230 31536 31538 1
25231 31536 31539 1
25232 31536 31540 1
25233 31541 31542 1
25234 31541 31543 1
25235 31541 31544 1
25236 31541 31545 1
25237 31546 31547 1
25238 31546 31548 1
25239 31546 31549 1
25240 31546 31550 1
25241 31551 31552 1
25242 31551 31553 1
25243 31551 31554 1
25244 31551 31555 1
25245 31556 31557 1
25246 31556 31558 1
25247 31556 31559 1
25248 31556 31560 1
25249 31561 31563 1
25250 31561 31564 1
25251 31561 31565 1
25252 31561 31562 1
25253 31566 31567 1
25254 31566 31568 1
25255 31566 31569 1
25256 31566 31570 1
25257 31571 31572 1
25258 31571 31573 1
25259 31571 31574 1
25260 31571 31575 1
25261 31576 31577 1
25262 31576 31578 1
25263 31576 31579 1
25264 31576 31580 1
25265 31581 31582 1
25266 31581 31583 1
25267 31581 31584 1
25268 31581 31585 1
25269 31586 31587 1
25270 31586 31588 1
25271 31586 31589 1
25272 31586 31590 1
25273 31591 31592 1
25274 31591 31593 1
25275 31591 31594 1
25276 31591 31595 1
25277 31596 31597 1
25278 31596 31598 1
25279 31596 31599 1
25280 31596 31600 1
25281 31601 31602 1
25282 31601 31603 1
25283 31601 31604 1
25284 31601 31605 1
25285 31606 31607 1
25286 31606 31608 1
25287 31606 31609 1
25288 31606 31610 1
25289 31611 31612 1
25290 31611 31613 1
25291 31611 31614 1
25292 31611 31615 1
25293 31616 31617 1
25294 31616 31618 1
25295 31616 31619 1
25296 31616 31620 1
25297 31621 31622 1
25298 31621 31623 1
25299 31621 31624 1
25300 31621 31625 1
25301 31626 31627 1
25302 31626 31628 1
25303 31626 31629 1
25304 31626 31630 1
25305 31631 31632 1
25306 31631 31633 1
25307 31631 31634 1
25308 31631 31635 1
25309 31636 31637 1
25310 31636 31638 1
25311 31636 31639 1
25312 31636 31640 1
25313 31641 31642 1
25314 31641 31643 1
25315 31641 31644 1
25316 31641 31645 1
25317 31646 31647 1
25318 31646 31648 1
25319 31646 31649 1
25320 31646 31650 1
25321 31651 31652 1
25322 31651 31653 1
25323 31651 31654 1
25324 31651 31655 1
25325 31656 31657 1
25326 31656 31658 1
25327 31656 31659 1
25328 31656 31660 1
25329 31661 31662 1
25330 31661 31663 1
25331 31661 31664 1
25332 31661 31665 1
25333 31666 31667 1
25334 31666 31668 1
25335 31666 31669 1
25336 31666 31670 1
25337 31671 31672 1
25338 31671 31673 1
25339 31671 31674 1
25340 31671 31675 1
25341 31676 31677 1
25342 31676 31678 1
25343 31676 31679 1
25344 31676 31680 1
25345 31681 31682 1
25346 31681 31683 1
25347 31681 31684 1
25348 31681 31685 1
25349 31686 31687 1
25350 31686 31688 1
25351 31686 31689 1
25352 31686 31690 1
25353 31691 31692 1
25354 31691 31693 1
25355 31691 31694 1
25356 31691 31695 1
25357 31696 31697 1
25358 31696 31698 1
25359 31696 31699 1
25360 31696 31700 1
25361 31701 31702 1
25362 31701 31703 1
25363 31701 31704 1
25364 31701 31705 1
25365 31706 31707 1
25366 31706 31708 1
25367 31706 31709 1
25368 31706 31710 1
25369 31711 31712 1
25370 31711 31713 1
25371 31711 31714 1
25372 31711 31715 1
25373 31716 31717 1
25374 31716 31718 1
25375 31716 31719 1
25376 31716 31720 1
25377 31721 31722 1
25378 31721 31723 1
25379 31721 31724 1
25380 31721 31725 1
25381 31726 31727 1
25382 31726 31728 1
25383 31726 31729 1
25384 31726 31730 1
25385 31731 31732 1
25386 31731 31733 1
25387 31731 31734 1
25388 31731 31735 1
25389 31736 31737 1
25390 31736 31738 1
25391 31736 31739 1
25392 31736 31740 1
25393 31741 31742 1
25394 31741 31743 1
25395 31741 31744 1
25396 31741 31745 1
25397 31746 31747 1
25398 31746 31748 1
25399 31746 31749 1
25400 31746 31750 1
25401 31751 31754 1
25402 31751 31755 1
25403 31751 31752 1
25404 31751 31753 1
25405 31756 31757 1
25406 31756 31758 1
25407 31756 31759 1
25408 31756 31760 1
25409 31761 31762 1
25410 31761 31763 1
25411 31761 31764 1
25412 31761 31765 1
25413 31766 31767 1
25414 31766 31768 1
25415 31766 31769 1
25416 31766 31770 1
25417 31771 31772 1
25418 31771 31773 1
25419 31771 31774 1
25420 31771 31775 1
25421 31776 31777 1
25422 31776 31778 1
25423 31776 31779 1
25424 31776 31780 1
25425 31781 31782 1
25426 31781 31783 1
25427 31781 31784 1
25428 31781 31785 1
25429 31786 31787 1
25430 31786 31788 1
25431 31786 31789 1
25432 31786 31790 1
25433 31791 31792 1
25434 31791 31793 1
25435 31791 31794 1
25436 31791 31795 1
25437 31796 31797 1
25438 31796 31798 1
25439 31796 31799 1
25440 31796 31800 1
25441 31801 31802 1
25442 31801 31803 1
25443 31801 31804 1
25444 31801 31805 1
25445 31806 31807 1
25446 31806 31808 1
25447 31806 31809 1
25448 31806 31810 1
25449 31811 31812 1
25450 31811 31813 1
25451 31811 31814 1
25452 31811 31815 1
25453 31816 31817 1
25454 31816 31818 1
25455 31816 31819 1
25456 31816 31820 1
25457 31821 31822 1
25458 31821 31823 1
25459 31821 31824 1
25460 31821 31825 1
25461 31826 31827 1
25462 31826 31828 1
25463 31826 31829 1
25464 31826 31830 1
25465 31831 31832 1
25466 31831 31833 1
25467 31831 31834 1
25468 31831 31835 1
25469 31836 31837 1
25470 31836 31838 1
25471 31836 31839 1
25472 31836 31840 1
25473 31841 31842 1
25474 31841 31843 1
25475 31841 31844 1
25476 31841 31845 1
25477 31846 31847 1
25478 31846 31848 1
25479 31846 31849 1
25480 31846 31850 1
25481 31851 31852 1
25482 31851 31853 1
25483 31851 31854 1
25484 31851 31855 1
25485 31856 31857 1
25486 31856 31858 1
25487 31856 31859 1
25488 31856 31860 1
25489 31861 31862 1
25490 31861 31863 1
25491 31861 31864 1
25492 31861 31865 1
25493 31866 31867 1
25494 31866 31868 1
25495 31866 31869 1
25496 31866 31870 1
25497 31871 31872 1
25498 31871 31873 1
25499 31871 31874 1
25500 31871 31875 1
25501 31876 31877 1
25502 31876 31878 1
25503 31876 31879 1
25504 31876 31880 1
25505 31881 31882 1
25506 31881 31883 1
25507 31881 31884 1
25508 31881 31885 1
25509 31886 31887 1
25510 31886 31888 1
25511 31886 31889 1
25512 31886 31890 1
25513 31891 31892 1
25514 31891 31893 1
25515 31891 31894 1
25516 31891 31895 1
25517 31896 31899 1
25518 31896 31900 1
25519 31896 31897 1
25520 31896 31898 1
25521 31901 31902 1
25522 31901 31903 1
25523 31901 31904 1
25524 31901 31905 1
25525 31906 31907 1
25526 31906 31908 1
25527 31906 31909 1
25528 31906 31910 1
25529 31911 31912 1
25530 31911 31913 1
25531 31911 31914 1
25532 31911 31915 1
25533 31916 31917 1
25534 31916 31918 1
25535 31916 31919 1
25536 31916 31920 1
25537 31921 31922 1
25538 31921 31923 1
25539 31921 31924 1
25540 31921 31925 1
25541 31926 31927 1
25542 31926 31928 1
25543 31926 31929 1
25544 31926 31930 1
25545 31931 31932 1
25546 31931 31933 1
25547 31931 31934 1
25548 31931 31935 1
25549 31936 31937 1
25550 31936 31938 1
25551 31936 31939 1
25552 31936 31940 1
25553 31941 31942 1
25554 31941 31943 1
25555 31941 31944 1
25556 31941 31945 1
25557 31946 31947 1
25558 31946 31948 1
25559 31946 31949 1
25560 31946 31950 1
25561 31951 31952 1
25562 31951 31953 1
25563 31951 31954 1
25564 31951 31955 1
25565 31956 31957 1
25566 31956 31958 1
25567 31956 31959 1
25568 31956 31960 1
25569 31961 31962 1
25570 31961 31963 1
25571 31961 31964 1
25572 31961 31965 1
25573 31966 31967 1
25574 31966 31968 1
25575 31966 31969 1
25576 31966 31970 1
25577 31971 31972 1
25578 31971 31973 1
25579 31971 31974 1
25580 31971 31975 1
25581 31976 31977 1
25582 31976 31978 1
25583 31976 31979 1
25584 31976 31980 1
25585 31981 31983 1
25586 31981 31984 1
25587 31981 31985 1
25588 31981 31982 1
25589 31986 31987 1
25590 31986 31988 1
25591 31986 31989 1
25592 31986 31990 1
25593 31991 31992 1
25594 31991 31993 1
25595 31991 31994 1
25596 31991 31995 1
25597 31996 31997 1
25598 31996 31998 1
25599 31996 31999 1
25600 31996 32000 1
25601 32001 32002 1
25602 32001 32003 1
25603 32001 32004 1
25604 32001 32005 1
25605 32006 32007 1
25606 32006 32008 1
25607 32006 32009 1
25608 32006 32010 1
25609 32011 32012 1
25610 32011 32013 1
25611 32011 32014 1
25612 32011 32015 1
25613 32016 32017 1
25614 32016 32018 1
25615 32016 32019 1
25616 32016 32020 1
25617 32021 32022 1
25618 32021 32023 1
25619 32021 32024 1
25620 32021 32025 1
25621 32026 32027 1
25622 32026 32028 1
25623 32026 32029 1
25624 32026 32030 1
25625 32031 32032 1
25626 32031 32033 1
25627 32031 32034 1
25628 32031 32035 1
25629 32036 32037 1
25630 32036 32038 1
25631 32036 32039 1
25632 32036 32040 1
25633 32041 32042 1
25634 32041 32043 1
25635 32041 32044 1
25636 32041 32045 1
25637 32046 32047 1
25638 32046 32048 1
25639 32046 32049 1
25640 32046 32050 1
25641 32051 32052 1
25642 32051 32053 1
25643 32051 32054 1
25644 32051 32055 1
25645 32056 32057 1
25646 32056 32058 1
25647 32056 32059 1
25648 32056 32060 1
25649 32061 32062 1
25650 32061 32063 1
25651 32061 32064 1
25652 32061 32065 1
25653 32066 32067 1
25654 32066 32068 1
25655 32066 32069 1
25656 32066 32070 1
25657 32071 32072 1
25658 32071 32073 1
25659 32071 32074 1
25660 32071 32075 1
25661 32076 32077 1
25662 32076 32078 1
25663 32076 32079 1
25664 32076 32080 1
25665 32081 32082 1
25666 32081 32083 1
25667 32081 32084 1
25668 32081 32085 1
25669 32086 32087 1
25670 32086 32088 1
25671 32086 32089 1
25672 32086 32090 1
25673 32091 32092 1
25674 32091 32093 1
25675 32091 32094 1
25676 32091 32095 1
25677 32096 32097 1
25678 32096 32098 1
25679 32096 32099 1
25680 32096 32100 1
25681 32101 32102 1
25682 32101 32103 1
25683 32101 32104 1
25684 32101 32105 1
25685 32106 32107 1
25686 32106 32108 1
25687 32106 32109 1
25688 32106 32110 1
25689 32111 32112 1
25690 32111 32113 1
25691 32111 32114 1
25692 32111 32115 1
25693 32116 32117 1
25694 32116 32118 1
25695 32116 32119 1
25696 32116 32120 1
25697 32121 32122 1
25698 32121 32123 1
25699 32121 32124 1
25700 32121 32125 1
25701 32126 32127 1
25702 32126 32128 1
25703 32126 32129 1
25704 32126 32130 1
25705 32131 32132 1
25706 32131 32133 1
25707 32131 32134 1
25708 32131 32135 1
25709 32136 32137 1
25710 32136 32138 1
25711 32136 32139 1
25712 32136 32140 1
25713 32141 32142 1
25714 32141 32143 1
25715 32141 32144 1
25716 32141 32145 1
25717 32146 32147 1
25718 32146 32148 1
25719 32146 32149 1
25720 32146 32150 1
25721 32151 32152 1
25722 32151 32153 1
25723 32151 32154 1
25724 32151 32155 1
25725 32156 32157 1
25726 32156 32158 1
25727 32156 32159 1
25728 32156 32160 1
25729 32161 32162 1
25730 32161 32163 1
25731 32161 32164 1
25732 32161 32165 1
25733 32166 32167 1
25734 32166 32168 1
25735 32166 32169 1
25736 32166 32170 1
25737 32171 32172 1
25738 32171 32173 1
25739 32171 32174 1
25740 32171 32175 1
25741 32176 32177 1
25742 32176 32178 1
25743 32176 32179 1
25744 32176 32180 1
25745 32181 32182 1
25746 32181 32183 1
25747 32181 32184 1
25748 32181 32185 1
25749 32186 32187 1
25750 32186 32188 1
25751 32186 32189 1
25752 32186 32190 1
25753 32191 32192 1
25754 32191 32193 1
25755 32191 32194 1
25756 32191 32195 1
25757 32196 32197 1
25758 32196 32198 1
25759 32196 32199 1
25760 32196 32200 1
25761 32201 32202 1
25762 32201 32203 1
25763 32201 32204 1
25764 32201 32205 1
25765 32206 32207 1
25766 32206 32208 1
25767 32206 32209 1
25768 32206 32210 1
25769 32211 32212 1
25770 32211 32213 1
25771 32211 32214 1
25772 32211 32215 1
25773 32216 32217 1
25774 32216 32218 1
25775 32216 32219 1
25776 32216 32220 1
25777 32221 32222 1
25778 32221 32223 1
25779 32221 32224 1
25780 32221 32225 1
25781 32226 32227 1
25782 32226 32228 1
25783 32226 32229 1
25784 32226 32230 1
25785 32231 32235 1
25786 32231 32232 1
25787 32231 32233 1
25788 32231 32234 1
25789 32236 32237 1
25790 32236 32238 1
25791 32236 32239 1
25792 32236 32240 1
25793 32241 32242 1
25794 32241 32243 1
25795 32241 32244 1
25796 32241 32245 1
25797 32246 32247 1
25798 32246 32248 1
25799 32246 32249 1
25800 32246 32250 1
25801 32251 32252 1
25802 32251 32253 1
25803 32251 32254 1
25804 32251 32255 1
25805 32256 32257 1
25806 32256 32258 1
25807 32256 32259 1
25808 32256 32260 1
25809 32261 32262 1
25810 32261 32263 1
25811 32261 32264 1
25812 32261 32265 1
25813 32266 32267 1
25814 32266 32268 1
25815 32266 32269 1
25816 32266 32270 1
25817 32271 32272 1
25818 32271 32273 1
25819 32271 32274 1
25820 32271 32275 1
25821 32276 32277 1
25822 32276 32278 1
25823 32276 32279 1
25824 32276 32280 1
25825 32281 32282 1
25826 32281 32283 1
25827 32281 32284 1
25828 32281 32285 1
25829 32286 32287 1
25830 32286 32288 1
25831 32286 32289 1
25832 32286 32290 1
25833 32291 32292 1
25834 32291 32293 1
25835 32291 32294 1
25836 32291 32295 1
25837 32296 32297 1
25838 32296 32298 1
25839 32296 32299 1
25840 32296 32300 1
25841 32301 32302 1
25842 32301 32303 1
25843 32301 32304 1
25844 32301 32305 1
25845 32306 32307 1
25846 32306 32308 1
25847 32306 32309 1
25848 32306 32310 1
25849 32311 32312 1
25850 32311 32313 1
25851 32311 32314 1
25852 32311 32315 1
25853 32316 32317 1
25854 32316 32318 1
25855 32316 32319 1
25856 32316 32320 1
25857 32321 32322 1
25858 32321 32323 1
25859 32321 32324 1
25860 32321 32325 1
25861 32326 32327 1
25862 32326 32328 1
25863 32326 32329 1
25864 32326 32330 1
25865 32331 32332 1
25866 32331 32333 1
25867 32331 32334 1
25868 32331 32335 1
25869 32336 32337 1
25870 32336 32338 1
25871 32336 32339 1
25872 32336 32340 1
25873 32341 32342 1
25874 32341 32343 1
25875 32341 32344 1
25876 32341 32345 1
25877 32346 32347 1
25878 32346 32348 1
25879 32346 32349 1
25880 32346 32350 1
25881 32351 32352 1
25882 32351 32353 1
25883 32351 32354 1
25884 32351 32355 1
25885 32356 32357 1
25886 32356 32358 1
25887 32356 32359 1
25888 32356 32360 1
25889 32361 32362 1
25890 32361 32363 1
25891 32361 32364 1
25892 32361 32365 1
25893 32366 32367 1
25894 32366 32368 1
25895 32366 32369 1
25896 32366 32370 1
25897 32371 32372 1
25898 32371 32373 1
25899 32371 32374 1
25900 32371 32375 1
25901 32376 32377 1
25902 32376 32378 1
25903 32376 32379 1
25904 32376 32380 1
25905 32381 32382 1
25906 32381 32383 1
25907 32381 32384 1
25908 32381 32385 1
25909 32386 32387 1
25910 32386 32388 1
25911 32386 32389 1
25912 32386 32390 1
25913 32391 32392 1
25914 32391 32393 1
25915 32391 32394 1
25916 32391 32395 1
25917 32396 32397 1
25918 32396 32398 1
25919 32396 32399 1
25920 32396 32400 1
25921 32401 32403 1
25922 32401 32404 1
25923 32401 32405 1
25924 32401 32402 1
25925 32406 32407 1
25926 32406 32408 1
25927 32406 32409 1
25928 32406 32410 1
25929 32411 32412 1
25930 32411 32413 1
25931 32411 32414 1
25932 32411 32415 1
25933 32416 32417 1
25934 32416 32418 1
25935 32416 32419 1
25936 32416 32420 1
25937 32421 32422 1
25938 32421 32423 1
25939 32421 32424 1
25940 32421 32425 1
25941 32426 32427 1
25942 32426 32428 1
25943 32426 32429 1
25944 32426 32430 1
25945 32431 32432 1
25946 32431 32433 1
25947 32431 32434 1
25948 32431 32435 1
25949 32436 32437 1
25950 32436 32438 1
25951 32436 32439 1
25952 32436 32440 1
25953 32441 32442 1
25954 32441 32443 1
25955 32441 32444 1
25956 32441 32445 1
25957 32446 32447 1
25958 32446 32448 1
25959 32446 32449 1
25960 32446 32450 1
25961 32451 32452 1
25962 32451 32453 1
25963 32451 32454 1
25964 32451 32455 1
25965 32456 32457 1
25966 32456 32458 1
25967 32456 32459 1
25968 32456 32460 1
25969 32461 32462 1
25970 32461 32463 1
25971 32461 32464 1
25972 32461 32465 1
25973 32466 32467 1
25974 32466 32468 1
25975 32466 32469 1
25976 32466 32470 1
25977 32471 32472 1
25978 32471 32473 1
25979 32471 32474 1
25980 32471 32475 1
25981 32476 32477 1
25982 32476 32478 1
25983 32476 32479 1
25984 32476 32480 1
25985 32481 32482 1
25986 32481 32483 1
25987 32481 32484 1
25988 32481 32485 1
25989 32486 32487 1
25990 32486 32488 1
25991 32486 32489 1
25992 32486 32490 1
25993 32491 32492 1
25994 32491 32493 1
25995 32491 32494 1
25996 32491 32495 1
25997 32496 32497 1
25998 32496 32498 1
25999 32496 32499 1
26000 32496 32500 1
26001 32501 32502 1
26002 32501 32503 1
26003 32501 32504 1
26004 32501 32505 1
26005 32506 32507 1
26006 32506 32508 1
26007 32506 32509 1
26008 32506 32510 1
26009 32511 32512 1
26010 32511 32513 1
26011 32511 32514 1
26012 32511 32515 1
26013 32516 32517 1
26014 32516 32518 1
26015 32516 32519 1
26016 32516 32520 1
26017 32521 32522 1
26018 32521 32523 1
26019 32521 32524 1
26020 32521 32525 1
26021 32526 32527 1
26022 32526 32528 1
26023 32526 32529 1
26024 32526 32530 1
26025 32531 32532 1
26026 32531 32533 1
26027 32531 32534 1
26028 32531 32535 1
26029 32536 32537 1
26030 32536 32538 1
26031 32536 32539 1
26032 32536 32540 1
26033 32541 32542 1
26034 32541 32543 1
26035 32541 32544 1
26036 32541 32545 1
26037 32546 32547 1
26038 32546 32548 1
26039 32546 32549 1
26040 32546 32550 1
26041 32551 32552 1
26042 32551 32553 1
26043 32551 32554 1
26044 32551 32555 1
26045 32556 32557 1
26046 32556 32558 1
26047 32556 32559 1
26048 32556 32560 1
26049 32561 32562 1
26050 32561 32563 1
26051 32561 32564 1
26052 32561 32565 1
26053 32566 32568 1
26054 32566 32569 1
26055 32566 32570 1
26056 32566 32567 1
26057 32571 32572 1
26058 32571 32573 1
26059 32571 32574 1
26060 32571 32575 1
26061 32576 32577 1
26062 32576 32578 1
26063 32576 32579 1
26064 32576 32580 1
26065 32581 32582 1
26066 32581 32583 1
26067 32581 32584 1
26068 32581 32585 1
26069 32586 32587 1
26070 32586 32588 1
26071 32586 32589 1
26072 32586 32590 1
26073 32591 32592 1
26074 32591 32593 1
26075 32591 32594 1
26076 32591 32595 1
26077 32596 32597 1
26078 32596 32598 1
26079 32596 32599 1
26080 32596 32600 1
26081 32601 32602 1
26082 32601 32603 1
26083 32601 32604 1
26084 32601 32605 1
26085 32606 32607 1
26086 32606 32608 1
26087 32606 32609 1
26088 32606 32610 1
26089 32611 32613 1
26090 32611 32614 1
26091 32611 32615 1
26092 32611 32612 1
26093 32616 32617 1
26094 32616 32618 1
26095 32616 32619 1
26096 32616 32620 1
26097 32621 32622 1
26098 32621 32623 1
26099 32621 32624 1
26100 32621 32625 1
26101 32626 32627 1
26102 32626 32628 1
26103 32626 32629 1
26104 32626 32630 1
26105 32631 32632 1
26106 32631 32633 1
26107 32631 32634 1
26108 32631 32635 1
26109 32636 32637 1
26110 32636 32638 1
26111 32636 32639 1
26112 32636 32640 1
26113 32641 32642 1
26114 32641 32643 1
26115 32641 32644 1
26116 32641 32645 1
26117 32646 32647 1
26118 32646 32648 1
26119 32646 32649 1
26120 32646 32650 1
26121 32651 32655 1
26122 32651 32652 1
26123 32651 32653 1
26124 32651 32654 1
26125 32656 32657 1
26126 32656 32658 1
26127 32656 32659 1
26128 32656 32660 1
26129 32661 32662 1
26130 32661 32663 1
26131 32661 32664 1
26132 32661 32665 1
26133 32666 32667 1
26134 32666 32668 1
26135 32666 32669 1
26136 32666 32670 1
26137 32671 32672 1
26138 32671 32673 1
26139 32671 32674 1
26140 32671 32675 1
26141 32676 32677 1
26142 32676 32678 1
26143 32676 32679 1
26144 32676 32680 1
26145 32681 32682 1
26146 32681 32683 1
26147 32681 32684 1
26148 32681 32685 1
26149 32686 32687 1
26150 32686 32688 1
26151 32686 32689 1
26152 32686 32690 1
26153 32691 32692 1
26154 32691 32693 1
26155 32691 32694 1
26156 32691 32695 1
26157 32696 32697 1
26158 32696 32698 1
26159 32696 32699 1
26160 32696 32700 1
26161 32701 32702 1
26162 32701 32703 1
26163 32701 32704 1
26164 32701 32705 1
26165 32706 32707 1
26166 32706 32708 1
26167 32706 32709 1
26168 32706 32710 1
26169 32711 32712 1
26170 32711 32713 1
26171 32711 32714 1
26172 32711 32715 1
26173 32716 32717 1
26174 32716 32718 1
26175 32716 32719 1
26176 32716 32720 1
26177 32721 32722 1
26178 32721 32723 1
26179 32721 32724 1
26180 32721 32725 1
26181 32726 32727 1
26182 32726 32728 1
26183 32726 32729 1
26184 32726 32730 1
26185 32731 32732 1
26186 32731 32733 1
26187 32731 32734 1
26188 32731 32735 1
26189 32736 32739 1
26190 32736 32740 1
26191 32736 32737 1
26192 32736 32738 1
26193 32741 32742 1
26194 32741 32743 1
26195 32741 32744 1
26196 32741 32745 1
26197 32746 32747 1
26198 32746 32748 1
26199 32746 32749 1
26200 32746 32750 1
26201 32751 32752 1
26202 32751 32753 1
26203 32751 32754 1
26204 32751 32755 1
26205 32756 32757 1
26206 32756 32758 1
26207 32756 32759 1
26208 32756 32760 1
26209 32761 32762 1
26210 32761 32763 1
26211 32761 32764 1
26212 32761 32765 1
26213 32766 32767 1
26214 32766 32768 1
26215 32766 32769 1
26216 32766 32770 1
26217 32771 32772 1
26218 32771 32773 1
26219 32771 32774 1
26220 32771 32775 1
26221 32776 32777 1
26222 32776 32778 1
26223 32776 32779 1
26224 32776 32780 1
26225 32781 32782 1
26226 32781 32783 1
26227 32781 32784 1
26228 32781 32785 1
26229 32786 32787 1
26230 32786 32788 1
26231 32786 32789 1
26232 32786 32790 1
26233 32791 32792 1
26234 32791 32793 1
26235 32791 32794 1
26236 32791 32795 1
26237 32796 32798 1
26238 32796 32799 1
26239 32796 32800 1
26240 32796 32797 1
26241 32801 32802 1
26242 32801 32803 1
26243 32801 32804 1
26244 32801 32805 1
26245 32806 32807 1
26246 32806 32808 1
26247 32806 32809 1
26248 32806 32810 1
26249 32811 32812 1
26250 32811 32813 1
26251 32811 32814 1
26252 32811 32815 1
26253 32816 32817 1
26254 32816 32818 1
26255 32816 32819 1
26256 32816 32820 1
26257 32821 32822 1
26258 32821 32823 1
26259 32821 32824 1
26260 32821 32825 1
26261 32826 32827 1
26262 32826 32828 1
26263 32826 32829 1
26264 32826 32830 1
26265 32831 32832 1
26266 32831 32833 1
26267 32831 32834 1
26268 32831 32835 1
26269 32836 32837 1
26270 32836 32838 1
26271 32836 32839 1
26272 32836 32840 1
26273 32841 32842 1
26274 32841 32843 1
26275 32841 32844 1
26276 32841 32845 1
26277 32846 32847 1
26278 32846 32848 1
26279 32846 32849 1
26280 32846 32850 1
26281 32851 32852 1
26282 32851 32853 1
26283 32851 32854 1
26284 32851 32855 1
26285 32856 32857 1
26286 32856 32858 1
26287 32856 32859 1
26288 32856 32860 1
26289 32861 32862 1
26290 32861 32863 1
26291 32861 32864 1
26292 32861 32865 1
26293 32866 32867 1
26294 32866 32868 1
26295 32866 32869 1
26296 32866 32870 1
26297 32871 32872 1
26298 32871 32873 1
26299 32871 32874 1
26300 32871 32875 1
26301 32876 32877 1
26302 32876 32878 1
26303 32876 32879 1
26304 32876 32880 1
26305 32881 32882 1
26306 32881 32883 1
26307 32881 32884 1
26308 32881 32885 1
26309 32886 32887 1
26310 32886 32888 1
26311 32886 32889 1
26312 32886 32890 1
26313 32891 32892 1
26314 32891 32894 1
26315 32891 32893 1
26316 32891 32895 1
26317 32896 32897 1
26318 32896 32898 1
26319 32896 32899 1
26320 32896 32900 1
26321 32901 32902 1
26322 32901 32903 1
26323 32901 32904 1
26324 32901 32905 1
26325 32906 32907 1
26326 32906 32908 1
26327 32906 32909 1
26328 32906 32910 1
26329 32911 32912 1
26330 32911 32913 1
26331 32911 32914 1
26332 32911 32915 1
26333 32916 32917 1
26334 32916 32918 1
26335 32916 32919 1
26336 32916 32920 1
26337 32921 32922 1
26338 32921 32923 1
26339 32921 32924 1
26340 32921 32925 1
26341 32926 32927 1
26342 32926 32928 1
26343 32926 32929 1
26344 32926 32930 1
26345 32931 32932 1
26346 32931 32933 1
26347 32931 32934 1
26348 32931 32935 1
26349 32936 32937 1
26350 32936 32938 1
26351 32936 32939 1
26352 32936 32940 1
26353 32941 32942 1
26354 32941 32943 1
26355 32941 32944 1
26356 32941 32945 1
26357 32946 32947 1
26358 32946 32948 1
26359 32946 32949 1
26360 32946 32950 1
26361 32951 32952 1
26362 32951 32953 1
26363 32951 32954 1
26364 32951 32955 1
26365 32956 32957 1
26366 32956 32958 1
26367 32956 32959 1
26368 32956 32960 1
26369 32961 32962 1
26370 32961 32963 1
26371 32961 32964 1
26372 32961 32965 1
26373 32966 32967 1
26374 32966 32968 1
26375 32966 32969 1
26376 32966 32970 1
26377 32971 32972 1
26378 32971 32973 1
26379 32971 32974 1
26380 32971 32975 1
26381 32976 32977 1
26382 32976 32978 1
26383 32976 32979 1
26384 32976 32980 1
26385 32981 32982 1
26386 32981 32983 1
26387 32981 32984 1
26388 32981 32985 1
26389 32986 32987 1
26390 32986 32988 1
26391 32986 32989 1
26392 32986 32990 1
26393 32991 32992 1
26394 32991 32993 1
26395 32991 32994 1
26396 32991 32995 1
26397 32996 32997 1
26398 32996 32998 1
26399 32996 32999 1
26400 32996 33000 1
26401 33001 33002 1
26402 33001 33003 1
26403 33001 33004 1
26404 33001 33005 1
26405 33006 33007 1
26406 33006 33008 1
26407 33006 33009 1
26408 33006 33010 1
26409 33011 33012 1
26410 33011 33013 1
26411 33011 33014 1
26412 33011 33015 1
26413 33016 33017 1
26414 33016 33018 1
26415 33016 33019 1
26416 33016 33020 1
26417 33021 33022 1
26418 33021 33023 1
26419 33021 33024 1
26420 33021 33025 1
26421 33026 33027 1
26422 33026 33028 1
26423 33026 33029 1
26424 33026 33030 1
26425 33031 33033 1
26426 33031 33034 1
26427 33031 33035 1
26428 33031 33032 1
26429 33036 33037 1
26430 33036 33038 1
26431 33036 33039 1
26432 33036 33040 1
26433 33041 33042 1
26434 33041 33043 1
26435 33041 33044 1
26436 33041 33045 1
26437 33046 33047 1
26438 33046 33048 1
26439 33046 33049 1
26440 33046 33050 1
26441 33051 33052 1
26442 33051 33053 1
26443 33051 33054 1
26444 33051 33055 1
26445 33056 33057 1
26446 33056 33058 1
26447 33056 33059 1
26448 33056 33060 1
26449 33061 33062 1
26450 33061 33063 1
26451 33061 33064 1
26452 33061 33065 1
26453 33066 33067 1
26454 33066 33068 1
26455 33066 33069 1
26456 33066 33070 1
26457 33071 33075 1
26458 33071 33072 1
26459 33071 33073 1
26460 33071 33074 1
26461 33076 33077 1
26462 33076 33078 1
26463 33076 33079 1
26464 33076 33080 1
26465 33081 33082 1
26466 33081 33083 1
26467 33081 33084 1
26468 33081 33085 1
26469 33086 33087 1
26470 33086 33088 1
26471 33086 33089 1
26472 33086 33090 1
26473 33091 33092 1
26474 33091 33093 1
26475 33091 33094 1
26476 33091 33095 1
26477 33096 33097 1
26478 33096 33098 1
26479 33096 33099 1
26480 33096 33100 1
26481 33101 33102 1
26482 33101 33103 1
26483 33101 33104 1
26484 33101 33105 1
26485 33106 33107 1
26486 33106 33108 1
26487 33106 33109 1
26488 33106 33110 1
26489 33111 33112 1
26490 33111 33113 1
26491 33111 33114 1
26492 33111 33115 1
26493 33116 33117 1
26494 33116 33118 1
26495 33116 33119 1
26496 33116 33120 1
26497 33121 33122 1
26498 33121 33123 1
26499 33121 33124 1
26500 33121 33125 1
26501 33126 33127 1
26502 33126 33128 1
26503 33126 33129 1
26504 33126 33130 1
26505 33131 33132 1
26506 33131 33133 1
26507 33131 33134 1
26508 33131 33135 1
26509 33136 33137 1
26510 33136 33138 1
26511 33136 33139 1
26512 33136 33140 1
26513 33141 33142 1
26514 33141 33143 1
26515 33141 33144 1
26516 33141 33145 1
26517 33146 33147 1
26518 33146 33148 1
26519 33146 33149 1
26520 33146 33150 1
26521 33151 33152 1
26522 33151 33153 1
26523 33151 33154 1
26524 33151 33155 1
26525 33156 33159 1
26526 33156 33160 1
26527 33156 33157 1
26528 33156 33158 1
26529 33161 33162 1
26530 33161 33163 1
26531 33161 33164 1
26532 33161 33165 1
26533 33166 33167 1
26534 33166 33168 1
26535 33166 33169 1
26536 33166 33170 1
26537 33171 33172 1
26538 33171 33173 1
26539 33171 33174 1
26540 33171 33175 1
26541 33176 33177 1
26542 33176 33178 1
26543 33176 33179 1
26544 33176 33180 1
26545 33181 33182 1
26546 33181 33183 1
26547 33181 33184 1
26548 33181 33185 1
26549 33186 33187 1
26550 33186 33188 1
26551 33186 33189 1
26552 33186 33190 1
26553 33191 33192 1
26554 33191 33193 1
26555 33191 33194 1
26556 33191 33195 1
26557 33196 33197 1
26558 33196 33198 1
26559 33196 33199 1
26560 33196 33200 1
26561 33201 33202 1
26562 33201 33203 1
26563 33201 33204 1
26564 33201 33205 1
26565 33206 33207 1
26566 33206 33208 1
26567 33206 33209 1
26568 33206 33210 1
26569 33211 33212 1
26570 33211 33213 1
26571 33211 33214 1
26572 33211 33215 1
26573 33216 33217 1
26574 33216 33218 1
26575 33216 33219 1
26576 33216 33220 1
26577 33221 33222 1
26578 33221 33223 1
26579 33221 33224 1
26580 33221 33225 1
26581 33226 33227 1
26582 33226 33228 1
26583 33226 33229 1
26584 33226 33230 1
26585 33231 33232 1
26586 33231 33233 1
26587 33231 33234 1
26588 33231 33235 1
26589 33236 33237 1
26590 33236 33238 1
26591 33236 33239 1
26592 33236 33240 1
26593 33241 33243 1
26594 33241 33244 1
26595 33241 33245 1
26596 33241 33242 1
26597 33246 33247 1
26598 33246 33248 1
26599 33246 33249 1
26600 33246 33250 1
26601 33251 33252 1
26602 33251 33253 1
26603 33251 33254 1
26604 33251 33255 1
26605 33256 33257 1
26606 33256 33258 1
26607 33256 33259 1
26608 33256 33260 1
26609 33261 33262 1
26610 33261 33263 1
26611 33261 33264 1
26612 33261 33265 1
26613 33266 33267 1
26614 33266 33268 1
26615 33266 33269 1
26616 33266 33270 1
26617 33271 33272 1
26618 33271 33273 1
26619 33271 33274 1
26620 33271 33275 1
26621 33276 33277 1
26622 33276 33278 1
26623 33276 33279 1
26624 33276 33280 1
26625 33281 33285 1
26626 33281 33282 1
26627 33281 33283 1
26628 33281 33284 1
26629 33286 33287 1
26630 33286 33288 1
26631 33286 33289 1
26632 33286 33290 1
26633 33291 33292 1
26634 33291 33293 1
26635 33291 33294 1
26636 33291 33295 1
26637 33296 33297 1
26638 33296 33298 1
26639 33296 33299 1
26640 33296 33300 1
26641 33301 33302 1
26642 33301 33303 1
26643 33301 33304 1
26644 33301 33305 1
26645 33306 33307 1
26646 33306 33308 1
26647 33306 33309 1
26648 33306 33310 1
26649 33311 33312 1
26650 33311 33313 1
26651 33311 33314 1
26652 33311 33315 1
26653 33316 33317 1
26654 33316 33318 1
26655 33316 33319 1
26656 33316 33320 1
26657 33321 33322 1
26658 33321 33323 1
26659 33321 33324 1
26660 33321 33325 1
26661 33326 33327 1
26662 33326 33328 1
26663 33326 33329 1
26664 33326 33330 1
26665 33331 33332 1
26666 33331 33333 1
26667 33331 33334 1
26668 33331 33335 1
26669 33336 33337 1
26670 33336 33338 1
26671 33336 33339 1
26672 33336 33340 1
26673 33341 33342 1
26674 33341 33343 1
26675 33341 33344 1
26676 33341 33345 1
26677 33346 33347 1
26678 33346 33348 1
26679 33346 33349 1
26680 33346 33350 1
26681 33351 33352 1
26682 33351 33353 1
26683 33351 33354 1
26684 33351 33355 1
26685 33356 33357 1
26686 33356 33358 1
26687 33356 33359 1
26688 33356 33360 1
26689 33361 33362 1
26690 33361 33363 1
26691 33361 33364 1
26692 33361 33365 1
26693 33366 33367 1
26694 33366 33368 1
26695 33366 33369 1
26696 33366 33370 1
26697 33371 33372 1
26698 33371 33373 1
26699 33371 33374 1
26700 33371 33375 1
26701 33376 33377 1
26702 33376 33378 1
26703 33376 33379 1
26704 33376 33380 1
26705 33381 33382 1
26706 33381 33383 1
26707 33381 33384 1
26708 33381 33385 1
26709 33386 33387 1
26710 33386 33388 1
26711 33386 33389 1
26712 33386 33390 1
26713 33391 33392 1
26714 33391 33393 1
26715 33391 33394 1
26716 33391 33395 1
26717 33396 33397 1
26718 33396 33398 1
26719 33396 33399 1
26720 33396 33400 1
26721 33401 33402 1
26722 33401 33403 1
26723 33401 33404 1
26724 33401 33405 1
26725 33406 33407 1
26726 33406 33408 1
26727 33406 33409 1
26728 33406 33410 1
26729 33411 33412 1
26730 33411 33413 1
26731 33411 33414 1
26732 33411 33415 1
26733 33416 33417 1
26734 33416 33418 1
26735 33416 33419 1
26736 33416 33420 1
26737 33421 33422 1
26738 33421 33423 1
26739 33421 33424 1
26740 33421 33425 1
26741 33426 33427 1
26742 33426 33428 1
26743 33426 33429 1
26744 33426 33430 1
26745 33431 33432 1
26746 33431 33433 1
26747 33431 33434 1
26748 33431 33435 1
26749 33436 33437 1
26750 33436 33438 1
26751 33436 33439 1
26752 33436 33440 1
26753 33441 33442 1
26754 33441 33443 1
26755 33441 33444 1
26756 33441 33445 1
26757 33446 33447 1
26758 33446 33448 1
26759 33446 33449 1
26760 33446 33450 1
26761 33451 33452 1
26762 33451 33453 1
26763 33451 33454 1
26764 33451 33455 1
26765 33456 33457 1
26766 33456 33458 1
26767 33456 33459 1
26768 33456 33460 1
26769 33461 33462 1
26770 33461 33463 1
26771 33461 33464 1
26772 33461 33465 1
26773 33466 33467 1
26774 33466 33468 1
26775 33466 33469 1
26776 33466 33470 1
26777 33471 33472 1
26778 33471 33473 1
26779 33471 33474 1
26780 33471 33475 1
26781 33476 33477 1
26782 33476 33478 1
26783 33476 33479 1
26784 33476 33480 1
26785 33481 33482 1
26786 33481 33483 1
26787 33481 33484 1
26788 33481 33485 1
26789 33486 33487 1
26790 33486 33488 1
26791 33486 33489 1
26792 33486 33490 1
26793 33491 33494 1
26794 33491 33495 1
26795 33491 33492 1
26796 33491 33493 1
26797 33496 33497 1
26798 33496 33498 1
26799 33496 33499 1
26800 33496 33500 1
26801 33501 33502 1
26802 33501 33503 1
26803 33501 33504 1
26804 33501 33505 1
26805 33506 33507 1
26806 33506 33508 1
26807 33506 33509 1
26808 33506 33510 1
26809 33511 33512 1
26810 33511 33513 1
26811 33511 33514 1
26812 33511 33515 1
26813 33516 33517 1
26814 33516 33518 1
26815 33516 33519 1
26816 33516 33520 1
26817 33521 33522 1
26818 33521 33523 1
26819 33521 33524 1
26820 33521 33525 1
26821 33526 33527 1
26822 33526 33528 1
26823 33526 33529 1
26824 33526 33530 1
26825 33531 33532 1
26826 33531 33533 1
26827 33531 33534 1
26828 33531 33535 1
26829 33536 33537 1
26830 33536 33538 1
26831 33536 33539 1
26832 33536 33540 1
26833 33541 33542 1
26834 33541 33543 1
26835 33541 33544 1
26836 33541 33545 1
26837 33546 33547 1
26838 33546 33548 1
26839 33546 33549 1
26840 33546 33550 1
26841 33551 33552 1
26842 33551 33553 1
26843 33551 33554 1
26844 33551 33555 1
26845 33556 33557 1
26846 33556 33558 1
26847 33556 33559 1
26848 33556 33560 1
26849 33561 33562 1
26850 33561 33563 1
26851 33561 33564 1
26852 33561 33565 1
26853 33566 33567 1
26854 33566 33568 1
26855 33566 33569 1
26856 33566 33570 1
26857 33571 33572 1
26858 33571 33573 1
26859 33571 33574 1
26860 33571 33575 1
26861 33576 33579 1
26862 33576 33580 1
26863 33576 33577 1
26864 33576 33578 1
26865 33581 33582 1
26866 33581 33583 1
26867 33581 33584 1
26868 33581 33585 1
26869 33586 33587 1
26870 33586 33588 1
26871 33586 33589 1
26872 33586 33590 1
26873 33591 33592 1
26874 33591 33593 1
26875 33591 33594 1
26876 33591 33595 1
26877 33596 33597 1
26878 33596 33598 1
26879 33596 33599 1
26880 33596 33600 1
26881 33601 33602 1
26882 33601 33603 1
26883 33601 33604 1
26884 33601 33605 1
26885 33606 33607 1
26886 33606 33608 1
26887 33606 33609 1
26888 33606 33610 1
26889 33611 33612 1
26890 33611 33613 1
26891 33611 33614 1
26892 33611 33615 1
26893 33616 33617 1
26894 33616 33618 1
26895 33616 33619 1
26896 33616 33620 1
26897 33621 33622 1
26898 33621 33623 1
26899 33621 33624 1
26900 33621 33625 1
26901 33626 33627 1
26902 33626 33628 1
26903 33626 33629 1
26904 33626 33630 1
26905 33631 33632 1
26906 33631 33633 1
26907 33631 33634 1
26908 33631 33635 1
26909 33636 33637 1
26910 33636 33638 1
26911 33636 33639 1
26912 33636 33640 1
26913 33641 33642 1
26914 33641 33643 1
26915 33641 33644 1
26916 33641 33645 1
26917 33646 33647 1
26918 33646 33648 1
26919 33646 33649 1
26920 33646 33650 1
26921 33651 33652 1
26922 33651 33653 1
26923 33651 33654 1
26924 33651 33655 1
26925 33656 33657 1
26926 33656 33658 1
26927 33656 33659 1
26928 33656 33660 1
26929 33661 33663 1
26930 33661 33664 1
26931 33661 33665 1
26932 33661 33662 1
26933 33666 33667 1
26934 33666 33668 1
26935 33666 33669 1
26936 33666 33670 1
26937 33671 33672 1
26938 33671 33673 1
26939 33671 33674 1
26940 33671 33675 1
26941 33676 33677 1
26942 33676 33678 1
26943 33676 33679 1
26944 33676 33680 1
26945 33681 33682 1
26946 33681 33683 1
26947 33681 33684 1
26948 33681 33685 1
26949 33686 33687 1
26950 33686 33688 1
26951 33686 33689 1
26952 33686 33690 1
26953 33691 33692 1
26954 33691 33693 1
26955 33691 33694 1
26956 33691 33695 1
26957 33696 33697 1
26958 33696 33698 1
26959 33696 33699 1
26960 33696 33700 1
26961 33701 33702 1
26962 33701 33703 1
26963 33701 33704 1
26964 33701 33705 1
26965 33706 33707 1
26966 33706 33708 1
26967 33706 33709 1
26968 33706 33710 1
26969 33711 33712 1
26970 33711 33713 1
26971 33711 33714 1
26972 33711 33715 1
26973 33716 33717 1
26974 33716 33718 1
26975 33716 33719 1
26976 33716 33720 1
26977 33721 33722 1
26978 33721 33723 1
26979 33721 33724 1
26980 33721 33725 1
26981 33726 33727 1
26982 33726 33728 1
26983 33726 33729 1
26984 33726 33730 1
26985 33731 33732 1
26986 33731 33733 1
26987 33731 33734 1
26988 33731 33735 1
26989 33736 33737 1
26990 33736 33738 1
26991 33736 33739 1
26992 33736 33740 1
26993 33741 33742 1
26994 33741 33743 1
26995 33741 33744 1
26996 33741 33745 1
26997 33746 33747 1
26998 33746 33748 1
26999 33746 33749 1
27000 33746 33750 1
27001 33751 33753 1
27002 33751 33752 1
27003 33751 33754 1
27004 33751 33755 1
27005 33756 33757 1
27006 33756 33758 1
27007 33756 33759 1
27008 33756 33760 1
27009 33761 33762 1
27010 33761 33763 1
27011 33761 33764 1
27012 33761 33765 1
27013 33766 33767 1
27014 33766 33768 1
27015 33766 33769 1
27016 33766 33770 1
27017 33771 33772 1
27018 33771 33773 1
27019 33771 33774 1
27020 33771 33775 1
27021 33776 33777 1
27022 33776 33778 1
27023 33776 33779 1
27024 33776 33780 1
27025 33781 33782 1
27026 33781 33783 1
27027 33781 33784 1
27028 33781 33785 1
27029 33786 33787 1
27030 33786 33788 1
27031 33786 33789 1
27032 33786 33790 1
27033 33791 33792 1
27034 33791 33793 1
27035 33791 33794 1
27036 33791 33795 1
27037 33796 33797 1
27038 33796 33798 1
27039 33796 33799 1
27040 33796 33800 1
27041 33801 33802 1
27042 33801 33803 1
27043 33801 33804 1
27044 33801 33805 1
27045 33806 33807 1
27046 33806 33808 1
27047 33806 33809 1
27048 33806 33810 1
27049 33811 33813 1
27050 33811 33814 1
27051 33811 33812 1
27052 33811 33815 1
27053 33816 33817 1
27054 33816 33818 1
27055 33816 33819 1
27056 33816 33820 1
27057 33821 33822 1
27058 33821 33823 1
27059 33821 33824 1
27060 33821 33825 1
27061 33826 33827 1
27062 33826 33828 1
27063 33826 33829 1
27064 33826 33830 1
27065 33831 33832 1
27066 33831 33833 1
27067 33831 33834 1
27068 33831 33835 1
27069 33836 33837 1
27070 33836 33838 1
27071 33836 33839 1
27072 33836 33840 1
27073 33841 33842 1
27074 33841 33843 1
27075 33841 33844 1
27076 33841 33845 1
27077 33846 33847 1
27078 33846 33848 1
27079 33846 33849 1
27080 33846 33850 1
27081 33851 33852 1
27082 33851 33853 1
27083 33851 33854 1
27084 33851 33855 1
27085 33856 33857 1
27086 33856 33858 1
27087 33856 33859 1
27088 33856 33860 1
27089 33861 33862 1
27090 33861 33863 1
27091 33861 33864 1
27092 33861 33865 1
27093 33866 33867 1
27094 33866 33868 1
27095 33866 33869 1
27096 33866 33870 1
27097 33871 33873 1
27098 33871 33874 1
27099 33871 33875 1
27100 33871 33872 1
27101 33876 33877 1
27102 33876 33878 1
27103 33876 33879 1
27104 33876 33880 1
27105 33881 33882 1
27106 33881 33883 1
27107 33881 33884 1
27108 33881 33885 1
27109 33886 33889 1
27110 33886 33890 1
27111 33886 33887 1
27112 33886 33888 1
27113 33891 33892 1
27114 33891 33893 1
27115 33891 33894 1
27116 33891 33895 1
27117 33896 33897 1
27118 33896 33898 1
27119 33896 33899 1
27120 33896 33900 1
27121 33901 33902 1
27122 33901 33903 1
27123 33901 33904 1
27124 33901 33905 1
27125 33906 33907 1
27126 33906 33908 1
27127 33906 33909 1
27128 33906 33910 1
27129 33911 33915 1
27130 33911 33912 1
27131 33911 33913 1
27132 33911 33914 1
27133 33916 33917 1
27134 33916 33918 1
27135 33916 33919 1
27136 33916 33920 1
27137 33921 33922 1
27138 33921 33923 1
27139 33921 33924 1
27140 33921 33925 1
27141 33926 33927 1
27142 33926 33928 1
27143 33926 33929 1
27144 33926 33930 1
27145 33931 33932 1
27146 33931 33933 1
27147 33931 33934 1
27148 33931 33935 1
27149 33936 33937 1
27150 33936 33938 1
27151 33936 33939 1
27152 33936 33940 1
27153 33941 33942 1
27154 33941 33943 1
27155 33941 33944 1
27156 33941 33945 1
27157 33946 33947 1
27158 33946 33948 1
27159 33946 33949 1
27160 33946 33950 1
27161 33951 33952 1
27162 33951 33953 1
27163 33951 33954 1
27164 33951 33955 1
27165 33956 33957 1
27166 33956 33958 1
27167 33956 33959 1
27168 33956 33960 1
27169 33961 33962 1
27170 33961 33963 1
27171 33961 33964 1
27172 33961 33965 1
27173 33966 33967 1
27174 33966 33968 1
27175 33966 33969 1
27176 33966 33970 1
27177 33971 33972 1
27178 33971 33973 1
27179 33971 33974 1
27180 33971 33975 1
27181 33976 33977 1
27182 33976 33978 1
27183 33976 33979 1
27184 33976 33980 1
27185 33981 33982 1
27186 33981 33983 1
27187 33981 33984 1
27188 33981 33985 1
27189 33986 33987 1
27190 33986 33988 1
27191 33986 33989 1
27192 33986 33990 1
27193 33991 33992 1
27194 33991 33993 1
27195 33991 33994 1
27196 33991 33995 1
27197 33996 33999 1
27198 33996 34000 1
27199 33996 33997 1
27200 33996 33998 1
27201 34001 34002 1
27202 34001 34003 1
27203 34001 34004 1
27204 34001 34005 1
27205 34006 34007 1
27206 34006 34008 1
27207 34006 34009 1
27208 34006 34010 1
27209 34011 34012 1
27210 34011 34013 1
27211 34011 34014 1
27212 34011 34015 1
27213 34016 34017 1
27214 34016 34018 1
27215 34016 34019 1
27216 34016 34020 1
27217 34021 34022 1
27218 34021 34023 1
27219 34021 34024 1
27220 34021 34025 1
27221 34026 34027 1
27222 34026 34028 1
27223 34026 34029 1
27224 34026 34030 1
27225 34031 34032 1
27226 34031 34033 1
27227 34031 34034 1
27228 34031 34035 1
27229 34036 34037 1
27230 34036 34038 1
27231 34036 34039 1
27232 34036 34040 1
27233 34041 34042 1
27234 34041 34043 1
27235 34041 34044 1
27236 34041 34045 1
27237 34046 34047 1
27238 34046 34048 1
27239 34046 34049 1
27240 34046 34050 1
27241 34051 34052 1
27242 34051 34053 1
27243 34051 34054 1
27244 34051 34055 1
27245 34056 34057 1
27246 34056 34058 1
27247 34056 34059 1
27248 34056 34060 1
27249 34061 34062 1
27250 34061 34063 1
27251 34061 34064 1
27252 34061 34065 1
27253 34066 34067 1
27254 34066 34068 1
27255 34066 34069 1
27256 34066 34070 1
27257 34071 34072 1
27258 34071 34073 1
27259 34071 34074 1
27260 34071 34075 1
27261 34076 34077 1
27262 34076 34078 1
27263 34076 34079 1
27264 34076 34080 1
27265 34081 34083 1
27266 34081 34084 1
27267 34081 34085 1
27268 34081 34082 1
27269 34086 34087 1
27270 34086 34088 1
27271 34086 34089 1
27272 34086 34090 1
27273 34091 34092 1
27274 34091 34093 1
27275 34091 34094 1
27276 34091 34095 1
27277 34096 34097 1
27278 34096 34098 1
27279 34096 34100 1
27280 34096 34099 1
27281 34101 34102 1
27282 34101 34103 1
27283 34101 34104 1
27284 34101 34105 1
27285 34106 34107 1
27286 34106 34108 1
27287 34106 34109 1
27288 34106 34110 1
27289 34111 34112 1
27290 34111 34113 1
27291 34111 34114 1
27292 34111 34115 1
27293 34116 34117 1
27294 34116 34118 1
27295 34116 34119 1
27296 34116 34120 1
27297 34121 34122 1
27298 34121 34123 1
27299 34121 34124 1
27300 34121 34125 1
27301 34126 34129 1
27302 34126 34130 1
27303 34126 34127 1
27304 34126 34128 1
27305 34131 34132 1
27306 34131 34133 1
27307 34131 34134 1
27308 34131 34135 1
27309 34136 34137 1
27310 34136 34138 1
27311 34136 34139 1
27312 34136 34140 1
27313 34141 34142 1
27314 34141 34143 1
27315 34141 34144 1
27316 34141 34145 1
27317 34146 34147 1
27318 34146 34148 1
27319 34146 34149 1
27320 34146 34150 1
27321 34151 34152 1
27322 34151 34153 1
27323 34151 34154 1
27324 34151 34155 1
27325 34156 34157 1
27326 34156 34158 1
27327 34156 34159 1
27328 34156 34160 1
27329 34161 34162 1
27330 34161 34163 1
27331 34161 34164 1
27332 34161 34165 1
27333 34166 34167 1
27334 34166 34168 1
27335 34166 34169 1
27336 34166 34170 1
27337 34171 34172 1
27338 34171 34173 1
27339 34171 34174 1
27340 34171 34175 1
27341 34176 34177 1
27342 34176 34178 1
27343 34176 34179 1
27344 34176 34180 1
27345 34181 34182 1
27346 34181 34183 1
27347 34181 34184 1
27348 34181 34185 1
27349 34186 34187 1
27350 34186 34188 1
27351 34186 34189 1
27352 34186 34190 1
27353 34191 34192 1
27354 34191 34193 1
27355 34191 34194 1
27356 34191 34195 1
27357 34196 34197 1
27358 34196 34198 1
27359 34196 34199 1
27360 34196 34200 1
27361 34201 34202 1
27362 34201 34203 1
27363 34201 34204 1
27364 34201 34205 1
27365 34206 34207 1
27366 34206 34208 1
27367 34206 34209 1
27368 34206 34210 1
27369 34211 34212 1
27370 34211 34213 1
27371 34211 34214 1
27372 34211 34215 1
27373 34216 34217 1
27374 34216 34218 1
27375 34216 34219 1
27376 34216 34220 1
27377 34221 34222 1
27378 34221 34223 1
27379 34221 34224 1
27380 34221 34225 1
27381 34226 34227 1
27382 34226 34228 1
27383 34226 34229 1
27384 34226 34230 1
27385 34231 34232 1
27386 34231 34233 1
27387 34231 34234 1
27388 34231 34235 1
27389 34236 34237 1
27390 34236 34238 1
27391 34236 34239 1
27392 34236 34240 1
27393 34241 34242 1
27394 34241 34243 1
27395 34241 34244 1
27396 34241 34245 1
27397 34246 34247 1
27398 34246 34248 1
27399 34246 34249 1
27400 34246 34250 1
27401 34251 34252 1
27402 34251 34253 1
27403 34251 34254 1
27404 34251 34255 1
27405 34256 34257 1
27406 34256 34258 1
27407 34256 34259 1
27408 34256 34260 1
27409 34261 34262 1
27410 34261 34263 1
27411 34261 34264 1
27412 34261 34265 1
27413 34266 34267 1
27414 34266 34268 1
27415 34266 34269 1
27416 34266 34270 1
27417 34271 34272 1
27418 34271 34273 1
27419 34271 34274 1
27420 34271 34275 1
27421 34276 34277 1
27422 34276 34278 1
27423 34276 34279 1
27424 34276 34280 1
27425 34281 34282 1
27426 34281 34283 1
27427 34281 34284 1
27428 34281 34285 1
27429 34286 34287 1
27430 34286 34288 1
27431 34286 34289 1
27432 34286 34290 1
27433 34291 34292 1
27434 34291 34293 1
27435 34291 34294 1
27436 34291 34295 1
27437 34296 34297 1
27438 34296 34298 1
27439 34296 34299 1
27440 34296 34300 1
27441 34301 34302 1
27442 34301 34303 1
27443 34301 34304 1
27444 34301 34305 1
27445 34306 34307 1
27446 34306 34308 1
27447 34306 34309 1
27448 34306 34310 1
27449 34311 34312 1
27450 34311 34313 1
27451 34311 34314 1
27452 34311 34315 1
27453 34316 34317 1
27454 34316 34318 1
27455 34316 34319 1
27456 34316 34320 1
27457 34321 34322 1
27458 34321 34323 1
27459 34321 34324 1
27460 34321 34325 1
27461 34326 34327 1
27462 34326 34328 1
27463 34326 34329 1
27464 34326 34330 1
27465 34331 34332 1
27466 34331 34333 1
27467 34331 34334 1
27468 34331 34335 1
27469 34336 34337 1
27470 34336 34338 1
27471 34336 34339 1
27472 34336 34340 1
27473 34341 34342 1
27474 34341 34343 1
27475 34341 34344 1
27476 34341 34345 1
27477 34346 34347 1
27478 34346 34348 1
27479 34346 34349 1
27480 34346 34350 1
27481 34351 34352 1
27482 34351 34353 1
27483 34351 34354 1
27484 34351 34355 1
27485 34356 34357 1
27486 34356 34358 1
27487 34356 34359 1
27488 34356 34360 1
27489 34361 34362 1
27490 34361 34363 1
27491 34361 34364 1
27492 34361 34365 1
27493 34366 34367 1
27494 34366 34368 1
27495 34366 34369 1
27496 34366 34370 1
27497 34371 34375 1
27498 34371 34372 1
27499 34371 34373 1
27500 34371 34374 1
27501 34376 34377 1
27502 34376 34378 1
27503 34376 34379 1
27504 34376 34380 1
27505 34381 34382 1
27506 34381 34383 1
27507 34381 34384 1
27508 34381 34385 1
27509 34386 34387 1
27510 34386 34388 1
27511 34386 34389 1
27512 34386 34390 1
27513 34391 34392 1
27514 34391 34393 1
27515 34391 34394 1
27516 34391 34395 1
27517 34396 34397 1
27518 34396 34398 1
27519 34396 34399 1
27520 34396 34400 1
27521 34401 34402 1
27522 34401 34403 1
27523 34401 34404 1
27524 34401 34405 1
27525 34406 34407 1
27526 34406 34408 1
27527 34406 34409 1
27528 34406 34410 1
27529 34411 34412 1
27530 34411 34413 1
27531 34411 34414 1
27532 34411 34415 1
27533 34416 34419 1
27534 34416 34420 1
27535 34416 34417 1
27536 34416 34418 1
27537 34421 34422 1
27538 34421 34423 1
27539 34421 34424 1
27540 34421 34425 1
27541 34426 34427 1
27542 34426 34428 1
27543 34426 34429 1
27544 34426 34430 1
27545 34431 34432 1
27546 34431 34433 1
27547 34431 34434 1
27548 34431 34435 1
27549 34436 34437 1
27550 34436 34438 1
27551 34436 34439 1
27552 34436 34440 1
27553 34441 34442 1
27554 34441 34443 1
27555 34441 34444 1
27556 34441 34445 1
27557 34446 34447 1
27558 34446 34448 1
27559 34446 34449 1
27560 34446 34450 1
27561 34451 34452 1
27562 34451 34453 1
27563 34451 34454 1
27564 34451 34455 1
27565 34456 34457 1
27566 34456 34458 1
27567 34456 34459 1
27568 34456 34460 1
27569 34461 34462 1
27570 34461 34463 1
27571 34461 34464 1
27572 34461 34465 1
27573 34466 34467 1
27574 34466 34468 1
27575 34466 34469 1
27576 34466 34470 1
27577 34471 34472 1
27578 34471 34473 1
27579 34471 34474 1
27580 34471 34475 1
27581 34476 34477 1
27582 34476 34478 1
27583 34476 34479 1
27584 34476 34480 1
27585 34481 34482 1
27586 34481 34483 1
27587 34481 34484 1
27588 34481 34485 1
27589 34486 34487 1
27590 34486 34488 1
27591 34486 34489 1
27592 34486 34490 1
27593 34491 34492 1
27594 34491 34493 1
27595 34491 34494 1
27596 34491 34495 1
27597 34496 34497 1
27598 34496 34498 1
27599 34496 34499 1
27600 34496 34500 1
27601 34501 34503 1
27602 34501 34504 1
27603 34501 34505 1
27604 34501 34502 1
27605 34506 34507 1
27606 34506 34508 1
27607 34506 34509 1
27608 34506 34510 1
27609 34511 34512 1
27610 34511 34513 1
27611 34511 34514 1
27612 34511 34515 1
27613 34516 34517 1
27614 34516 34518 1
27615 34516 34519 1
27616 34516 34520 1
27617 34521 34522 1
27618 34521 34523 1
27619 34521 34524 1
27620 34521 34525 1
27621 34526 34527 1
27622 34526 34528 1
27623 34526 34529 1
27624 34526 34530 1
27625 34531 34532 1
27626 34531 34533 1
27627 34531 34534 1
27628 34531 34535 1
27629 34536 34537 1
27630 34536 34538 1
27631 34536 34539 1
27632 34536 34540 1
27633 34541 34542 1
27634 34541 34543 1
27635 34541 34544 1
27636 34541 34545 1
27637 34546 34547 1
27638 34546 34548 1
27639 34546 34549 1
27640 34546 34550 1
27641 34551 34552 1
27642 34551 34553 1
27643 34551 34554 1
27644 34551 34555 1
27645 34556 34557 1
27646 34556 34558 1
27647 34556 34559 1
27648 34556 34560 1
27649 34561 34562 1
27650 34561 34563 1
27651 34561 34564 1
27652 34561 34565 1
27653 34566 34567 1
27654 34566 34568 1
27655 34566 34569 1
27656 34566 34570 1
27657 34571 34572 1
27658 34571 34573 1
27659 34571 34574 1
27660 34571 34575 1
27661 34576 34577 1
27662 34576 34578 1
27663 34576 34579 1
27664 34576 34580 1
27665 34581 34585 1
27666 34581 34582 1
27667 34581 34583 1
27668 34581 34584 1
27669 34586 34587 1
27670 34586 34588 1
27671 34586 34589 1
27672 34586 34590 1
27673 34591 34592 1
27674 34591 34593 1
27675 34591 34594 1
27676 34591 34595 1
27677 34596 34597 1
27678 34596 34598 1
27679 34596 34599 1
27680 34596 34600 1
27681 34601 34602 1
27682 34601 34603 1
27683 34601 34604 1
27684 34601 34605 1
27685 34606 34607 1
27686 34606 34608 1
27687 34606 34609 1
27688 34606 34610 1
27689 34611 34612 1
27690 34611 34613 1
27691 34611 34614 1
27692 34611 34615 1
27693 34616 34617 1
27694 34616 34618 1
27695 34616 34619 1
27696 34616 34620 1
27697 34621 34622 1
27698 34621 34623 1
27699 34621 34624 1
27700 34621 34625 1
27701 34626 34627 1
27702 34626 34628 1
27703 34626 34629 1
27704 34626 34630 1
27705 34631 34632 1
27706 34631 34633 1
27707 34631 34634 1
27708 34631 34635 1
27709 34636 34637 1
27710 34636 34638 1
27711 34636 34639 1
27712 34636 34640 1
27713 34641 34642 1
27714 34641 34643 1
27715 34641 34644 1
27716 34641 34645 1
27717 34646 34647 1
27718 34646 34648 1
27719 34646 34649 1
27720 34646 34650 1
27721 34651 34652 1
27722 34651 34653 1
27723 34651 34654 1
27724 34651 34655 1
27725 34656 34657 1
27726 34656 34658 1
27727 34656 34659 1
27728 34656 34660 1
27729 34661 34662 1
27730 34661 34663 1
27731 34661 34664 1
27732 34661 34665 1
27733 34666 34667 1
27734 34666 34668 1
27735 34666 34669 1
27736 34666 34670 1
27737 34671 34672 1
27738 34671 34673 1
27739 34671 34674 1
27740 34671 34675 1
27741 34676 34677 1
27742 34676 34678 1
27743 34676 34679 1
27744 34676 34680 1
27745 34681 34682 1
27746 34681 34683 1
27747 34681 34684 1
27748 34681 34685 1
27749 34686 34687 1
27750 34686 34688 1
27751 34686 34689 1
27752 34686 34690 1
27753 34691 34692 1
27754 34691 34693 1
27755 34691 34694 1
27756 34691 34695 1
27757 34696 34697 1
27758 34696 34698 1
27759 34696 34699 1
27760 34696 34700 1
27761 34701 34702 1
27762 34701 34703 1
27763 34701 34704 1
27764 34701 34705 1
27765 34706 34707 1
27766 34706 34708 1
27767 34706 34709 1
27768 34706 34710 1
27769 34711 34712 1
27770 34711 34713 1
27771 34711 34714 1
27772 34711 34715 1
27773 34716 34717 1
27774 34716 34718 1
27775 34716 34719 1
27776 34716 34720 1
27777 34721 34722 1
27778 34721 34723 1
27779 34721 34724 1
27780 34721 34725 1
27781 34726 34727 1
27782 34726 34728 1
27783 34726 34729 1
27784 34726 34730 1
27785 34731 34732 1
27786 34731 34733 1
27787 34731 34734 1
27788 34731 34735 1
27789 34736 34737 1
27790 34736 34738 1
27791 34736 34739 1
27792 34736 34740 1
27793 34741 34742 1
27794 34741 34743 1
27795 34741 34744 1
27796 34741 34745 1
27797 34746 34747 1
27798 34746 34748 1
27799 34746 34749 1
27800 34746 34750 1
27801 34751 34755 1
27802 34751 34752 1
27803 34751 34753 1
27804 34751 34754 1
27805 34756 34757 1
27806 34756 34758 1
27807 34756 34759 1
27808 34756 34760 1
27809 34761 34762 1
27810 34761 34763 1
27811 34761 34764 1
27812 34761 34765 1
27813 34766 34767 1
27814 34766 34768 1
27815 34766 34769 1
27816 34766 34770 1
27817 34771 34772 1
27818 34771 34773 1
27819 34771 34774 1
27820 34771 34775 1
27821 34776 34777 1
27822 34776 34778 1
27823 34776 34779 1
27824 34776 34780 1
27825 34781 34782 1
27826 34781 34783 1
27827 34781 34784 1
27828 34781 34785 1
27829 34786 34787 1
27830 34786 34788 1
27831 34786 34789 1
27832 34786 34790 1
27833 34791 34792 1
27834 34791 34793 1
27835 34791 34794 1
27836 34791 34795 1
27837 34796 34797 1
27838 34796 34798 1
27839 34796 34799 1
27840 34796 34800 1
27841 34801 34802 1
27842 34801 34803 1
27843 34801 34804 1
27844 34801 34805 1
27845 34806 34807 1
27846 34806 34808 1
27847 34806 34809 1
27848 34806 34810 1
27849 34811 34812 1
27850 34811 34813 1
27851 34811 34814 1
27852 34811 34815 1
27853 34816 34817 1
27854 34816 34818 1
27855 34816 34819 1
27856 34816 34820 1
27857 34821 34822 1
27858 34821 34823 1
27859 34821 34824 1
27860 34821 34825 1
27861 34826 34827 1
27862 34826 34828 1
27863 34826 34829 1
27864 34826 34830 1
27865 34831 34832 1
27866 34831 34833 1
27867 34831 34834 1
27868 34831 34835 1
27869 34836 34837 1
27870 34836 34838 1
27871 34836 34839 1
27872 34836 34840 1
27873 34841 34842 1
27874 34841 34843 1
27875 34841 34844 1
27876 34841 34845 1
27877 34846 34847 1
27878 34846 34848 1
27879 34846 34849 1
27880 34846 34850 1
27881 34851 34852 1
27882 34851 34853 1
27883 34851 34854 1
27884 34851 34855 1
27885 34856 34857 1
27886 34856 34858 1
27887 34856 34859 1
27888 34856 34860 1
27889 34861 34863 1
27890 34861 34864 1
27891 34861 34865 1
27892 34861 34862 1
27893 34866 34867 1
27894 34866 34868 1
27895 34866 34869 1
27896 34866 34870 1
27897 34871 34872 1
27898 34871 34873 1
27899 34871 34874 1
27900 34871 34875 1
27901 34876 34877 1
27902 34876 34878 1
27903 34876 34879 1
27904 34876 34880 1
27905 34881 34882 1
27906 34881 34883 1
27907 34881 34884 1
27908 34881 34885 1
27909 34886 34887 1
27910 34886 34888 1
27911 34886 34889 1
27912 34886 34890 1
27913 34891 34892 1
27914 34891 34893 1
27915 34891 34894 1
27916 34891 34895 1
27917 34896 34897 1
27918 34896 34898 1
27919 34896 34899 1
27920 34896 34900 1
27921 34901 34902 1
27922 34901 34903 1
27923 34901 34904 1
27924 34901 34905 1
27925 34906 34907 1
27926 34906 34908 1
27927 34906 34909 1
27928 34906 34910 1
27929 34911 34912 1
27930 34911 34913 1
27931 34911 34914 1
27932 34911 34915 1
27933 34916 34917 1
27934 34916 34918 1
27935 34916 34919 1
27936 34916 34920 1
27937 34921 34922 1
27938 34921 34923 1
27939 34921 34924 1
27940 34921 34925 1
27941 34926 34927 1
27942 34926 34928 1
27943 34926 34929 1
27944 34926 34930 1
27945 34931 34932 1
27946 34931 34933 1
27947 34931 34934 1
27948 34931 34935 1
27949 34936 34937 1
27950 34936 34938 1
27951 34936 34939 1
27952 34936 34940 1
27953 34941 34942 1
27954 34941 34943 1
27955 34941 34944 1
27956 34941 34945 1
27957 34946 34947 1
27958 34946 34948 1
27959 34946 34949 1
27960 34946 34950 1
27961 34951 34952 1
27962 34951 34953 1
27963 34951 34954 1
27964 34951 34955 1
27965 34956 34957 1
27966 34956 34958 1
27967 34956 34959 1
27968 34956 34960 1
27969 34961 34962 1
27970 34961 34963 1
27971 34961 34964 1
27972 34961 34965 1
27973 34966 34967 1
27974 34966 34968 1
27975 34966 34969 1
27976 34966 34970 1
27977 34971 34972 1
27978 34971 34973 1
27979 34971 34974 1
27980 34971 34975 1
27981 34976 34977 1
27982 34976 34978 1
27983 34976 34979 1
27984 34976 34980 1
27985 34981 34982 1
27986 34981 34983 1
27987 34981 34984 1
27988 34981 34985 1
27989 34986 34987 1
27990 34986 34988 1
27991 34986 34989 1
27992 34986 34990 1
27993 34991 34992 1
27994 34991 34993 1
27995 34991 34994 1
27996 34991 34995 1
27997 34996 34997 1
27998 34996 34998 1
27999 34996 34999 1
28000 34996 35000 1
28001 35001 35002 1
28002 35001 35003 1
28003 35001 35004 1
28004 35001 35005 1
28005 35006 35007 1
28006 35006 35008 1
28007 35006 35009 1
28008 35006 35010 1
28009 35011 35012 1
28010 35011 35013 1
28011 35011 35014 1
28012 35011 35015 1
28013 35016 35017 1
28014 35016 35018 1
28015 35016 35019 1
28016 35016 35020 1
28017 35021 35022 1
28018 35021 35023 1
28019 35021 35024 1
28020 35021 35025 1
28021 35026 35027 1
28022 35026 35028 1
28023 35026 35029 1
28024 35026 35030 1
28025 35031 35032 1
28026 35031 35033 1
28027 35031 35034 1
28028 35031 35035 1
28029 35036 35037 1
28030 35036 35038 1
28031 35036 35039 1
28032 35036 35040 1
28033 35041 35042 1
28034 35041 35043 1
28035 35041 35044 1
28036 35041 35045 1
28037 35046 35047 1
28038 35046 35048 1
28039 35046 35049 1
28040 35046 35050 1
28041 35051 35052 1
28042 35051 35053 1
28043 35051 35054 1
28044 35051 35055 1
28045 35056 35057 1
28046 35056 35058 1
28047 35056 35059 1
28048 35056 35060 1
28049 35061 35062 1
28050 35061 35063 1
28051 35061 35064 1
28052 35061 35065 1
28053 35066 35067 1
28054 35066 35068 1
28055 35066 35069 1
28056 35066 35070 1
28057 35071 35072 1
28058 35071 35073 1
28059 35071 35074 1
28060 35071 35075 1
28061 35076 35077 1
28062 35076 35078 1
28063 35076 35079 1
28064 35076 35080 1
28065 35081 35082 1
28066 35081 35083 1
28067 35081 35084 1
28068 35081 35085 1
28069 35086 35087 1
28070 35086 35088 1
28071 35086 35089 1
28072 35086 35090 1
28073 35091 35092 1
28074 35091 35093 1
28075 35091 35094 1
28076 35091 35095 1
28077 35096 35097 1
28078 35096 35098 1
28079 35096 35099 1
28080 35096 35100 1
28081 35101 35102 1
28082 35101 35103 1
28083 35101 35104 1
28084 35101 35105 1
28085 35106 35107 1
28086 35106 35108 1
28087 35106 35109 1
28088 35106 35110 1
28089 35111 35112 1
28090 35111 35113 1
28091 35111 35114 1
28092 35111 35115 1
28093 35116 35117 1
28094 35116 35118 1
28095 35116 35119 1
28096 35116 35120 1
28097 35121 35122 1
28098 35121 35123 1
28099 35121 35124 1
28100 35121 35125 1
28101 35126 35127 1
28102 35126 35128 1
28103 35126 35129 1
28104 35126 35130 1
28105 35131 35132 1
28106 35131 35133 1
28107 35131 35134 1
28108 35131 35135 1
28109 35136 35137 1
28110 35136 35138 1
28111 35136 35139 1
28112 35136 35140 1
28113 35141 35142 1
28114 35141 35143 1
28115 35141 35144 1
28116 35141 35145 1
28117 35146 35147 1
28118 35146 35148 1
28119 35146 35149 1
28120 35146 35150 1
28121 35151 35152 1
28122 35151 35153 1
28123 35151 35155 1
28124 35151 35154 1
28125 35156 35157 1
28126 35156 35158 1
28127 35156 35159 1
28128 35156 35160 1
28129 35161 35162 1
28130 35161 35163 1
28131 35161 35164 1
28132 35161 35165 1
28133 35166 35167 1
28134 35166 35168 1
28135 35166 35169 1
28136 35166 35170 1
28137 35171 35175 1
28138 35171 35173 1
28139 35171 35172 1
28140 35171 35174 1
28141 35176 35177 1
28142 35176 35178 1
28143 35176 35179 1
28144 35176 35180 1
28145 35181 35182 1
28146 35181 35183 1
28147 35181 35184 1
28148 35181 35185 1
28149 35186 35187 1
28150 35186 35188 1
28151 35186 35189 1
28152 35186 35190 1
28153 35191 35192 1
28154 35191 35193 1
28155 35191 35194 1
28156 35191 35195 1
28157 35196 35197 1
28158 35196 35198 1
28159 35196 35199 1
28160 35196 35200 1
28161 35201 35202 1
28162 35201 35203 1
28163 35201 35204 1
28164 35201 35205 1
28165 35206 35207 1
28166 35206 35208 1
28167 35206 35209 1
28168 35206 35210 1
28169 35211 35212 1
28170 35211 35213 1
28171 35211 35214 1
28172 35211 35215 1
28173 35216 35217 1
28174 35216 35218 1
28175 35216 35219 1
28176 35216 35220 1
28177 35221 35222 1
28178 35221 35223 1
28179 35221 35224 1
28180 35221 35225 1
28181 35226 35227 1
28182 35226 35228 1
28183 35226 35229 1
28184 35226 35230 1
28185 35231 35232 1
28186 35231 35233 1
28187 35231 35234 1
28188 35231 35235 1
28189 35236 35237 1
28190 35236 35238 1
28191 35236 35239 1
28192 35236 35240 1
28193 35241 35242 1
28194 35241 35243 1
28195 35241 35244 1
28196 35241 35245 1
28197 35246 35247 1
28198 35246 35248 1
28199 35246 35249 1
28200 35246 35250 1
28201 35251 35252 1
28202 35251 35253 1
28203 35251 35254 1
28204 35251 35255 1
28205 35256 35259 1
28206 35256 35260 1
28207 35256 35257 1
28208 35256 35258 1
28209 35261 35262 1
28210 35261 35263 1
28211 35261 35264 1
28212 35261 35265 1
28213 35266 35267 1
28214 35266 35268 1
28215 35266 35269 1
28216 35266 35270 1
28217 35271 35272 1
28218 35271 35273 1
28219 35271 35274 1
28220 35271 35275 1
28221 35276 35277 1
28222 35276 35278 1
28223 35276 35279 1
28224 35276 35280 1
28225 35281 35282 1
28226 35281 35283 1
28227 35281 35284 1
28228 35281 35285 1
28229 35286 35287 1
28230 35286 35288 1
28231 35286 35289 1
28232 35286 35290 1
28233 35291 35292 1
28234 35291 35293 1
28235 35291 35294 1
28236 35291 35295 1
28237 35296 35297 1
28238 35296 35298 1
28239 35296 35299 1
28240 35296 35300 1
28241 35301 35302 1
28242 35301 35303 1
28243 35301 35304 1
28244 35301 35305 1
28245 35306 35307 1
28246 35306 35308 1
28247 35306 35309 1
28248 35306 35310 1
28249 35311 35312 1
28250 35311 35313 1
28251 35311 35314 1
28252 35311 35315 1
28253 35316 35317 1
28254 35316 35318 1
28255 35316 35319 1
28256 35316 35320 1
28257 35321 35322 1
28258 35321 35323 1
28259 35321 35324 1
28260 35321 35325 1
28261 35326 35327 1
28262 35326 35328 1
28263 35326 35329 1
28264 35326 35330 1
28265 35331 35332 1
28266 35331 35333 1
28267 35331 35334 1
28268 35331 35335 1
28269 35336 35337 1
28270 35336 35338 1
28271 35336 35339 1
28272 35336 35340 1
28273 35341 35343 1
28274 35341 35344 1
28275 35341 35345 1
28276 35341 35342 1
28277 35346 35347 1
28278 35346 35348 1
28279 35346 35349 1
28280 35346 35350 1
28281 35351 35352 1
28282 35351 35353 1
28283 35351 35354 1
28284 35351 35355 1
28285 35356 35357 1
28286 35356 35358 1
28287 35356 35359 1
28288 35356 35360 1
28289 35361 35362 1
28290 35361 35363 1
28291 35361 35364 1
28292 35361 35365 1
28293 35366 35367 1
28294 35366 35368 1
28295 35366 35369 1
28296 35366 35370 1
28297 35371 35372 1
28298 35371 35373 1
28299 35371 35374 1
28300 35371 35375 1
28301 35376 35377 1
28302 35376 35378 1
28303 35376 35379 1
28304 35376 35380 1
28305 35381 35382 1
28306 35381 35383 1
28307 35381 35384 1
28308 35381 35385 1
28309 35386 35387 1
28310 35386 35388 1
28311 35386 35389 1
28312 35386 35390 1
28313 35391 35392 1
28314 35391 35393 1
28315 35391 35394 1
28316 35391 35395 1
28317 35396 35397 1
28318 35396 35398 1
28319 35396 35399 1
28320 35396 35400 1
28321 35401 35402 1
28322 35401 35403 1
28323 35401 35404 1
28324 35401 35405 1
28325 35406 35407 1
28326 35406 35408 1
28327 35406 35409 1
28328 35406 35410 1
28329 35411 35412 1
28330 35411 35413 1
28331 35411 35414 1
28332 35411 35415 1
28333 35416 35417 1
28334 35416 35418 1
28335 35416 35419 1
28336 35416 35420 1
28337 35421 35422 1
28338 35421 35423 1
28339 35421 35424 1
28340 35421 35425 1
28341 35426 35427 1
28342 35426 35428 1
28343 35426 35429 1
28344 35426 35430 1
28345 35431 35432 1
28346 35431 35433 1
28347 35431 35434 1
28348 35431 35435 1
28349 35436 35437 1
28350 35436 35438 1
28351 35436 35439 1
28352 35436 35440 1
28353 35441 35442 1
28354 35441 35443 1
28355 35441 35444 1
28356 35441 35445 1
28357 35446 35447 1
28358 35446 35448 1
28359 35446 35449 1
28360 35446 35450 1
28361 35451 35452 1
28362 35451 35453 1
28363 35451 35454 1
28364 35451 35455 1
28365 35456 35457 1
28366 35456 35458 1
28367 35456 35459 1
28368 35456 35460 1
28369 35461 35462 1
28370 35461 35463 1
28371 35461 35464 1
28372 35461 35465 1
28373 35466 35467 1
28374 35466 35468 1
28375 35466 35469 1
28376 35466 35470 1
28377 35471 35472 1
28378 35471 35473 1
28379 35471 35474 1
28380 35471 35475 1
28381 35476 35477 1
28382 35476 35478 1
28383 35476 35479 1
28384 35476 35480 1
28385 35481 35482 1
28386 35481 35483 1
28387 35481 35484 1
28388 35481 35485 1
28389 35486 35487 1
28390 35486 35488 1
28391 35486 35489 1
28392 35486 35490 1
28393 35491 35492 1
28394 35491 35493 1
28395 35491 35494 1
28396 35491 35495 1
28397 35496 35497 1
28398 35496 35498 1
28399 35496 35499 1
28400 35496 35500 1
28401 35501 35502 1
28402 35501 35503 1
28403 35501 35504 1
28404 35501 35505 1
28405 35506 35507 1
28406 35506 35508 1
28407 35506 35509 1
28408 35506 35510 1
28409 35511 35512 1
28410 35511 35513 1
28411 35511 35514 1
28412 35511 35515 1
28413 35516 35517 1
28414 35516 35518 1
28415 35516 35519 1
28416 35516 35520 1
28417 35521 35522 1
28418 35521 35523 1
28419 35521 35524 1
28420 35521 35525 1
28421 35526 35527 1
28422 35526 35528 1
28423 35526 35529 1
28424 35526 35530 1
28425 35531 35532 1
28426 35531 35533 1
28427 35531 35534 1
28428 35531 35535 1
28429 35536 35537 1
28430 35536 35538 1
28431 35536 35539 1
28432 35536 35540 1
28433 35541 35542 1
28434 35541 35543 1
28435 35541 35544 1
28436 35541 35545 1
28437 35546 35550 1
28438 35546 35547 1
28439 35546 35548 1
28440 35546 35549 1
28441 35551 35552 1
28442 35551 35553 1
28443 35551 35554 1
28444 35551 35555 1
28445 35556 35557 1
28446 35556 35558 1
28447 35556 35559 1
28448 35556 35560 1
28449 35561 35562 1
28450 35561 35563 1
28451 35561 35564 1
28452 35561 35565 1
28453 35566 35567 1
28454 35566 35568 1
28455 35566 35569 1
28456 35566 35570 1
28457 35571 35572 1
28458 35571 35573 1
28459 35571 35574 1
28460 35571 35575 1
28461 35576 35577 1
28462 35576 35578 1
28463 35576 35579 1
28464 35576 35580 1
28465 35581 35582 1
28466 35581 35583 1
28467 35581 35584 1
28468 35581 35585 1
28469 35586 35587 1
28470 35586 35588 1
28471 35586 35589 1
28472 35586 35590 1
28473 35591 35595 1
28474 35591 35594 1
28475 35591 35592 1
28476 35591 35593 1
28477 35596 35597 1
28478 35596 35598 1
28479 35596 35599 1
28480 35596 35600 1
28481 35601 35602 1
28482 35601 35603 1
28483 35601 35604 1
28484 35601 35605 1
28485 35606 35607 1
28486 35606 35608 1
28487 35606 35609 1
28488 35606 35610 1
28489 35611 35612 1
28490 35611 35613 1
28491 35611 35614 1
28492 35611 35615 1
28493 35616 35617 1
28494 35616 35618 1
28495 35616 35619 1
28496 35616 35620 1
28497 35621 35622 1
28498 35621 35623 1
28499 35621 35624 1
28500 35621 35625 1
28501 35626 35627 1
28502 35626 35628 1
28503 35626 35629 1
28504 35626 35630 1
28505 35631 35632 1
28506 35631 35633 1
28507 35631 35634 1
28508 35631 35635 1
28509 35636 35637 1
28510 35636 35638 1
28511 35636 35639 1
28512 35636 35640 1
28513 35641 35642 1
28514 35641 35643 1
28515 35641 35644 1
28516 35641 35645 1
28517 35646 35647 1
28518 35646 35648 1
28519 35646 35649 1
28520 35646 35650 1
28521 35651 35653 1
28522 35651 35652 1
28523 35651 35654 1
28524 35651 35655 1
28525 35656 35657 1
28526 35656 35658 1
28527 35656 35659 1
28528 35656 35660 1
28529 35661 35662 1
28530 35661 35663 1
28531 35661 35664 1
28532 35661 35665 1
28533 35666 35667 1
28534 35666 35668 1
28535 35666 35669 1
28536 35666 35670 1
28537 35671 35672 1
28538 35671 35673 1
28539 35671 35674 1
28540 35671 35675 1
28541 35676 35679 1
28542 35676 35680 1
28543 35676 35677 1
28544 35676 35678 1
28545 35681 35682 1
28546 35681 35683 1
28547 35681 35684 1
28548 35681 35685 1
28549 35686 35687 1
28550 35686 35688 1
28551 35686 35689 1
28552 35686 35690 1
28553 35691 35692 1
28554 35691 35693 1
28555 35691 35694 1
28556 35691 35695 1
28557 35696 35697 1
28558 35696 35698 1
28559 35696 35699 1
28560 35696 35700 1
28561 35701 35702 1
28562 35701 35703 1
28563 35701 35704 1
28564 35701 35705 1
28565 35706 35707 1
28566 35706 35708 1
28567 35706 35709 1
28568 35706 35710 1
28569 35711 35712 1
28570 35711 35713 1
28571 35711 35714 1
28572 35711 35715 1
28573 35716 35717 1
28574 35716 35718 1
28575 35716 35719 1
28576 35716 35720 1
28577 35721 35722 1
28578 35721 35723 1
28579 35721 35724 1
28580 35721 35725 1
28581 35726 35727 1
28582 35726 35728 1
28583 35726 35729 1
28584 35726 35730 1
28585 35731 35732 1
28586 35731 35733 1
28587 35731 35734 1
28588 35731 35735 1
28589 35736 35737 1
28590 35736 35738 1
28591 35736 35739 1
28592 35736 35740 1
28593 35741 35742 1
28594 35741 35743 1
28595 35741 35744 1
28596 35741 35745 1
28597 35746 35747 1
28598 35746 35748 1
28599 35746 35749 1
28600 35746 35750 1
28601 35751 35752 1
28602 35751 35753 1
28603 35751 35754 1
28604 35751 35755 1
28605 35756 35757 1
28606 35756 35758 1
28607 35756 35759 1
28608 35756 35760 1
28609 35761 35763 1
28610 35761 35764 1
28611 35761 35765 1
28612 35761 35762 1
28613 35766 35767 1
28614 35766 35768 1
28615 35766 35769 1
28616 35766 35770 1
28617 35771 35772 1
28618 35771 35773 1
28619 35771 35774 1
28620 35771 35775 1
28621 35776 35777 1
28622 35776 35778 1
28623 35776 35779 1
28624 35776 35780 1
28625 35781 35782 1
28626 35781 35783 1
28627 35781 35784 1
28628 35781 35785 1
28629 35786 35787 1
28630 35786 35788 1
28631 35786 35789 1
28632 35786 35790 1
28633 35791 35792 1
28634 35791 35793 1
28635 35791 35794 1
28636 35791 35795 1
28637 35796 35797 1
28638 35796 35798 1
28639 35796 35799 1
28640 35796 35800 1
28641 35801 35802 1
28642 35801 35803 1
28643 35801 35804 1
28644 35801 35805 1
28645 35806 35807 1
28646 35806 35808 1
28647 35806 35809 1
28648 35806 35810 1
28649 35811 35812 1
28650 35811 35813 1
28651 35811 35814 1
28652 35811 35815 1
28653 35816 35817 1
28654 35816 35818 1
28655 35816 35819 1
28656 35816 35820 1
28657 35821 35822 1
28658 35821 35823 1
28659 35821 35824 1
28660 35821 35825 1
28661 35826 35827 1
28662 35826 35828 1
28663 35826 35829 1
28664 35826 35830 1
28665 35831 35832 1
28666 35831 35833 1
28667 35831 35834 1
28668 35831 35835 1
28669 35836 35837 1
28670 35836 35838 1
28671 35836 35839 1
28672 35836 35840 1
28673 35841 35842 1
28674 35841 35843 1
28675 35841 35844 1
28676 35841 35845 1
28677 35846 35847 1
28678 35846 35848 1
28679 35846 35849 1
28680 35846 35850 1
28681 35851 35852 1
28682 35851 35853 1
28683 35851 35854 1
28684 35851 35855 1
28685 35856 35857 1
28686 35856 35858 1
28687 35856 35859 1
28688 35856 35860 1
28689 35861 35862 1
28690 35861 35863 1
28691 35861 35864 1
28692 35861 35865 1
28693 35866 35867 1
28694 35866 35868 1
28695 35866 35869 1
28696 35866 35870 1
28697 35871 35872 1
28698 35871 35873 1
28699 35871 35874 1
28700 35871 35875 1
28701 35876 35877 1
28702 35876 35878 1
28703 35876 35879 1
28704 35876 35880 1
28705 35881 35882 1
28706 35881 35883 1
28707 35881 35884 1
28708 35881 35885 1
28709 35886 35887 1
28710 35886 35888 1
28711 35886 35889 1
28712 35886 35890 1
28713 35891 35892 1
28714 35891 35893 1
28715 35891 35894 1
28716 35891 35895 1
28717 35896 35897 1
28718 35896 35898 1
28719 35896 35899 1
28720 35896 35900 1
28721 35901 35902 1
28722 35901 35903 1
28723 35901 35904 1
28724 35901 35905 1
28725 35906 35907 1
28726 35906 35908 1
28727 35906 35909 1
28728 35906 35910 1
28729 35911 35912 1
28730 35911 35913 1
28731 35911 35914 1
28732 35911 35915 1
28733 35916 35917 1
28734 35916 35918 1
28735 35916 35919 1
28736 35916 35920 1
28737 35921 35922 1
28738 35921 35923 1
28739 35921 35924 1
28740 35921 35925 1
28741 35926 35927 1
28742 35926 35928 1
28743 35926 35929 1
28744 35926 35930 1
28745 35931 35932 1
28746 35931 35933 1
28747 35931 35934 1
28748 35931 35935 1
28749 35936 35937 1
28750 35936 35938 1
28751 35936 35939 1
28752 35936 35940 1
28753 35941 35942 1
28754 35941 35943 1
28755 35941 35944 1
28756 35941 35945 1
28757 35946 35947 1
28758 35946 35948 1
28759 35946 35949 1
28760 35946 35950 1
28761 35951 35952 1
28762 35951 35953 1
28763 35951 35954 1
28764 35951 35955 1
28765 35956 35957 1
28766 35956 35958 1
28767 35956 35959 1
28768 35956 35960 1
28769 35961 35962 1
28770 35961 35963 1
28771 35961 35964 1
28772 35961 35965 1
28773 35966 35967 1
28774 35966 35968 1
28775 35966 35969 1
28776 35966 35970 1
28777 35971 35972 1
28778 35971 35973 1
28779 35971 35974 1
28780 35971 35975 1
28781 35976 35977 1
28782 35976 35978 1
28783 35976 35979 1
28784 35976 35980 1
28785 35981 35982 1
28786 35981 35983 1
28787 35981 35984 1
28788 35981 35985 1
28789 35986 35987 1
28790 35986 35988 1
28791 35986 35989 1
28792 35986 35990 1
28793 35991 35992 1
28794 35991 35993 1
28795 35991 35994 1
28796 35991 35995 1
28797 35996 35997 1
28798 35996 35998 1
28799 35996 35999 1
28800 35996 36000 1
28801 36001 36002 1
28802 36001 36003 1
28803 36001 36004 1
28804 36001 36005 1
28805 36006 36007 1
28806 36006 36008 1
28807 36006 36009 1
28808 36006 36010 1
28809 36011 36015 1
28810 36011 36012 1
28811 36011 36013 1
28812 36011 36014 1
28813 36016 36017 1
28814 36016 36018 1
28815 36016 36019 1
28816 36016 36020 1
28817 36021 36022 1
28818 36021 36023 1
28819 36021 36024 1
28820 36021 36025 1
28821 36026 36027 1
28822 36026 36028 1
28823 36026 36029 1
28824 36026 36030 1
28825 36031 36032 1
28826 36031 36033 1
28827 36031 36034 1
28828 36031 36035 1
28829 36036 36037 1
28830 36036 36038 1
28831 36036 36039 1
28832 36036 36040 1
28833 36041 36042 1
28834 36041 36043 1
28835 36041 36044 1
28836 36041 36045 1
28837 36046 36047 1
28838 36046 36048 1
28839 36046 36049 1
28840 36046 36050 1
28841 36051 36052 1
28842 36051 36053 1
28843 36051 36054 1
28844 36051 36055 1
28845 36056 36057 1
28846 36056 36058 1
28847 36056 36059 1
28848 36056 36060 1
28849 36061 36062 1
28850 36061 36063 1
28851 36061 36064 1
28852 36061 36065 1
28853 36066 36067 1
28854 36066 36068 1
28855 36066 36069 1
28856 36066 36070 1
28857 36071 36072 1
28858 36071 36073 1
28859 36071 36074 1
28860 36071 36075 1
28861 36076 36077 1
28862 36076 36078 1
28863 36076 36079 1
28864 36076 36080 1
28865 36081 36082 1
28866 36081 36083 1
28867 36081 36084 1
28868 36081 36085 1
28869 36086 36087 1
28870 36086 36088 1
28871 36086 36089 1
28872 36086 36090 1
28873 36091 36092 1
28874 36091 36093 1
28875 36091 36094 1
28876 36091 36095 1
28877 36096 36099 1
28878 36096 36100 1
28879 36096 36097 1
28880 36096 36098 1
28881 36101 36102 1
28882 36101 36103 1
28883 36101 36104 1
28884 36101 36105 1
28885 36106 36107 1
28886 36106 36108 1
28887 36106 36109 1
28888 36106 36110 1
28889 36111 36112 1
28890 36111 36113 1
28891 36111 36114 1
28892 36111 36115 1
28893 36116 36117 1
28894 36116 36118 1
28895 36116 36119 1
28896 36116 36120 1
28897 36121 36122 1
28898 36121 36123 1
28899 36121 36124 1
28900 36121 36125 1
28901 36126 36127 1
28902 36126 36128 1
28903 36126 36129 1
28904 36126 36130 1
28905 36131 36132 1
28906 36131 36133 1
28907 36131 36134 1
28908 36131 36135 1
28909 36136 36137 1
28910 36136 36138 1
28911 36136 36139 1
28912 36136 36140 1
28913 36141 36142 1
28914 36141 36143 1
28915 36141 36144 1
28916 36141 36145 1
28917 36146 36147 1
28918 36146 36148 1
28919 36146 36149 1
28920 36146 36150 1
28921 36151 36152 1
28922 36151 36153 1
28923 36151 36154 1
28924 36151 36155 1
28925 36156 36157 1
28926 36156 36158 1
28927 36156 36159 1
28928 36156 36160 1
28929 36161 36162 1
28930 36161 36163 1
28931 36161 36164 1
28932 36161 36165 1
28933 36166 36167 1
28934 36166 36168 1
28935 36166 36169 1
28936 36166 36170 1
28937 36171 36172 1
28938 36171 36173 1
28939 36171 36174 1
28940 36171 36175 1
28941 36176 36180 1
28942 36176 36177 1
28943 36176 36178 1
28944 36176 36179 1
28945 36181 36183 1
28946 36181 36184 1
28947 36181 36185 1
28948 36181 36182 1
28949 36186 36187 1
28950 36186 36188 1
28951 36186 36189 1
28952 36186 36190 1
28953 36191 36192 1
28954 36191 36193 1
28955 36191 36194 1
28956 36191 36195 1
28957 36196 36197 1
28958 36196 36198 1
28959 36196 36199 1
28960 36196 36200 1
28961 36201 36202 1
28962 36201 36203 1
28963 36201 36204 1
28964 36201 36205 1
28965 36206 36207 1
28966 36206 36208 1
28967 36206 36209 1
28968 36206 36210 1
28969 36211 36212 1
28970 36211 36213 1
28971 36211 36214 1
28972 36211 36215 1
28973 36216 36217 1
28974 36216 36218 1
28975 36216 36219 1
28976 36216 36220 1
28977 36221 36222 1
28978 36221 36223 1
28979 36221 36224 1
28980 36221 36225 1
28981 36226 36227 1
28982 36226 36228 1
28983 36226 36229 1
28984 36226 36230 1
28985 36231 36232 1
28986 36231 36233 1
28987 36231 36234 1
28988 36231 36235 1
28989 36236 36237 1
28990 36236 36238 1
28991 36236 36239 1
28992 36236 36240 1
28993 36241 36242 1
28994 36241 36243 1
28995 36241 36244 1
28996 36241 36245 1
28997 36246 36247 1
28998 36246 36248 1
28999 36246 36249 1
29000 36246 36250 1
29001 36251 36252 1
29002 36251 36253 1
29003 36251 36254 1
29004 36251 36255 1
29005 36256 36257 1
29006 36256 36258 1
29007 36256 36259 1
29008 36256 36260 1
29009 36261 36262 1
29010 36261 36263 1
29011 36261 36264 1
29012 36261 36265 1
29013 36266 36267 1
29014 36266 36268 1
29015 36266 36269 1
29016 36266 36270 1
29017 36271 36272 1
29018 36271 36273 1
29019 36271 36274 1
29020 36271 36275 1
29021 36276 36277 1
29022 36276 36278 1
29023 36276 36279 1
29024 36276 36280 1
29025 36281 36282 1
29026 36281 36283 1
29027 36281 36284 1
29028 36281 36285 1
29029 36286 36287 1
29030 36286 36288 1
29031 36286 36289 1
29032 36286 36290 1
29033 36291 36292 1
29034 36291 36293 1
29035 36291 36294 1
29036 36291 36295 1
29037 36296 36297 1
29038 36296 36298 1
29039 36296 36299 1
29040 36296 36300 1
29041 36301 36302 1
29042 36301 36303 1
29043 36301 36304 1
29044 36301 36305 1
29045 36306 36309 1
29046 36306 36310 1
29047 36306 36307 1
29048 36306 36308 1
29049 36311 36312 1
29050 36311 36313 1
29051 36311 36314 1
29052 36311 36315 1
29053 36316 36317 1
29054 36316 36318 1
29055 36316 36319 1
29056 36316 36320 1
29057 36321 36322 1
29058 36321 36323 1
29059 36321 36324 1
29060 36321 36325 1
29061 36326 36327 1
29062 36326 36328 1
29063 36326 36329 1
29064 36326 36330 1
29065 36331 36332 1
29066 36331 36333 1
29067 36331 36334 1
29068 36331 36335 1
29069 36336 36337 1
29070 36336 36338 1
29071 36336 36339 1
29072 36336 36340 1
29073 36341 36342 1
29074 36341 36343 1
29075 36341 36344 1
29076 36341 36345 1
29077 36346 36347 1
29078 36346 36348 1
29079 36346 36349 1
29080 36346 36350 1
29081 36351 36352 1
29082 36351 36353 1
29083 36351 36354 1
29084 36351 36355 1
29085 36356 36357 1
29086 36356 36358 1
29087 36356 36359 1
29088 36356 36360 1
29089 36361 36362 1
29090 36361 36363 1
29091 36361 36364 1
29092 36361 36365 1
29093 36366 36367 1
29094 36366 36368 1
29095 36366 36369 1
29096 36366 36370 1
29097 36371 36372 1
29098 36371 36373 1
29099 36371 36374 1
29100 36371 36375 1
29101 36376 36377 1
29102 36376 36378 1
29103 36376 36379 1
29104 36376 36380 1
29105 36381 36382 1
29106 36381 36383 1
29107 36381 36384 1
29108 36381 36385 1
29109 36386 36387 1
29110 36386 36388 1
29111 36386 36389 1
29112 36386 36390 1
29113 36391 36392 1
29114 36391 36393 1
29115 36391 36394 1
29116 36391 36395 1
29117 36396 36397 1
29118 36396 36398 1
29119 36396 36399 1
29120 36396 36400 1
29121 36401 36402 1
29122 36401 36403 1
29123 36401 36404 1
29124 36401 36405 1
29125 36406 36407 1
29126 36406 36408 1
29127 36406 36409 1
29128 36406 36410 1
29129 36411 36412 1
29130 36411 36413 1
29131 36411 36414 1
29132 36411 36415 1
29133 36416 36417 1
29134 36416 36418 1
29135 36416 36419 1
29136 36416 36420 1
29137 36421 36422 1
29138 36421 36423 1
29139 36421 36424 1
29140 36421 36425 1
29141 36426 36427 1
29142 36426 36428 1
29143 36426 36429 1
29144 36426 36430 1
29145 36431 36435 1
29146 36431 36432 1
29147 36431 36433 1
29148 36431 36434 1
29149 36436 36437 1
29150 36436 36438 1
29151 36436 36439 1
29152 36436 36440 1
29153 36441 36442 1
29154 36441 36443 1
29155 36441 36444 1
29156 36441 36445 1
29157 36446 36447 1
29158 36446 36448 1
29159 36446 36449 1
29160 36446 36450 1
29161 36451 36452 1
29162 36451 36453 1
29163 36451 36454 1
29164 36451 36455 1
29165 36456 36457 1
29166 36456 36458 1
29167 36456 36459 1
29168 36456 36460 1
29169 36461 36462 1
29170 36461 36463 1
29171 36461 36464 1
29172 36461 36465 1
29173 36466 36467 1
29174 36466 36468 1
29175 36466 36469 1
29176 36466 36470 1
29177 36471 36472 1
29178 36471 36473 1
29179 36471 36474 1
29180 36471 36475 1
29181 36476 36477 1
29182 36476 36478 1
29183 36476 36479 1
29184 36476 36480 1
29185 36481 36482 1
29186 36481 36483 1
29187 36481 36484 1
29188 36481 36485 1
29189 36486 36487 1
29190 36486 36488 1
29191 36486 36489 1
29192 36486 36490 1
29193 36491 36492 1
29194 36491 36493 1
29195 36491 36494 1
29196 36491 36495 1
29197 36496 36497 1
29198 36496 36498 1
29199 36496 36499 1
29200 36496 36500 1
29201 36501 36502 1
29202 36501 36503 1
29203 36501 36504 1
29204 36501 36505 1
29205 36506 36507 1
29206 36506 36508 1
29207 36506 36509 1
29208 36506 36510 1
29209 36511 36512 1
29210 36511 36513 1
29211 36511 36514 1
29212 36511 36515 1
29213 36516 36519 1
29214 36516 36520 1
29215 36516 36517 1
29216 36516 36518 1
29217 36521 36522 1
29218 36521 36523 1
29219 36521 36524 1
29220 36521 36525 1
29221 36526 36527 1
29222 36526 36528 1
29223 36526 36529 1
29224 36526 36530 1
29225 36531 36532 1
29226 36531 36533 1
29227 36531 36534 1
29228 36531 36535 1
29229 36536 36537 1
29230 36536 36538 1
29231 36536 36539 1
29232 36536 36540 1
29233 36541 36542 1
29234 36541 36543 1
29235 36541 36544 1
29236 36541 36545 1
29237 36546 36547 1
29238 36546 36548 1
29239 36546 36549 1
29240 36546 36550 1
29241 36551 36552 1
29242 36551 36553 1
29243 36551 36554 1
29244 36551 36555 1
29245 36556 36557 1
29246 36556 36558 1
29247 36556 36559 1
29248 36556 36560 1
29249 36561 36562 1
29250 36561 36563 1
29251 36561 36564 1
29252 36561 36565 1
29253 36566 36567 1
29254 36566 36568 1
29255 36566 36569 1
29256 36566 36570 1
29257 36571 36572 1
29258 36571 36573 1
29259 36571 36574 1
29260 36571 36575 1
29261 36576 36577 1
29262 36576 36578 1
29263 36576 36579 1
29264 36576 36580 1
29265 36581 36582 1
29266 36581 36583 1
29267 36581 36584 1
29268 36581 36585 1
29269 36586 36587 1
29270 36586 36588 1
29271 36586 36589 1
29272 36586 36590 1
29273 36591 36592 1
29274 36591 36593 1
29275 36591 36594 1
29276 36591 36595 1
29277 36596 36600 1
29278 36596 36597 1
29279 36596 36598 1
29280 36596 36599 1
29281 36601 36603 1
29282 36601 36604 1
29283 36601 36605 1
29284 36601 36602 1
29285 36606 36607 1
29286 36606 36608 1
29287 36606 36609 1
29288 36606 36610 1
29289 36611 36612 1
29290 36611 36613 1
29291 36611 36614 1
29292 36611 36615 1
29293 36616 36617 1
29294 36616 36618 1
29295 36616 36619 1
29296 36616 36620 1
29297 36621 36622 1
29298 36621 36623 1
29299 36621 36624 1
29300 36621 36625 1
29301 36626 36627 1
29302 36626 36628 1
29303 36626 36629 1
29304 36626 36630 1
29305 36631 36632 1
29306 36631 36633 1
29307 36631 36634 1
29308 36631 36635 1
29309 36636 36637 1
29310 36636 36638 1
29311 36636 36639 1
29312 36636 36640 1
29313 36641 36642 1
29314 36641 36643 1
29315 36641 36644 1
29316 36641 36645 1
29317 36646 36648 1
29318 36646 36647 1
29319 36646 36650 1
29320 36646 36649 1
29321 36651 36652 1
29322 36651 36653 1
29323 36651 36654 1
29324 36651 36655 1
29325 36656 36657 1
29326 36656 36658 1
29327 36656 36659 1
29328 36656 36660 1
29329 36661 36662 1
29330 36661 36663 1
29331 36661 36664 1
29332 36661 36665 1
29333 36666 36667 1
29334 36666 36668 1
29335 36666 36669 1
29336 36666 36670 1
29337 36671 36672 1
29338 36671 36673 1
29339 36671 36674 1
29340 36671 36675 1
29341 36676 36677 1
29342 36676 36678 1
29343 36676 36679 1
29344 36676 36680 1
29345 36681 36684 1
29346 36681 36682 1
29347 36681 36683 1
29348 36681 36685 1
29349 36686 36687 1
29350 36686 36688 1
29351 36686 36689 1
29352 36686 36690 1
29353 36691 36692 1
29354 36691 36693 1
29355 36691 36694 1
29356 36691 36695 1
29357 36696 36697 1
29358 36696 36698 1
29359 36696 36699 1
29360 36696 36700 1
29361 36701 36702 1
29362 36701 36703 1
29363 36701 36704 1
29364 36701 36705 1
29365 36706 36707 1
29366 36706 36708 1
29367 36706 36709 1
29368 36706 36710 1
29369 36711 36712 1
29370 36711 36713 1
29371 36711 36714 1
29372 36711 36715 1
29373 36716 36717 1
29374 36716 36718 1
29375 36716 36719 1
29376 36716 36720 1
29377 36721 36722 1
29378 36721 36723 1
29379 36721 36724 1
29380 36721 36725 1
29381 36726 36727 1
29382 36726 36728 1
29383 36726 36729 1
29384 36726 36730 1
29385 36731 36732 1
29386 36731 36733 1
29387 36731 36734 1
29388 36731 36735 1
29389 36736 36737 1
29390 36736 36738 1
29391 36736 36739 1
29392 36736 36740 1
29393 36741 36742 1
29394 36741 36743 1
29395 36741 36744 1
29396 36741 36745 1
29397 36746 36747 1
29398 36746 36748 1
29399 36746 36749 1
29400 36746 36750 1
29401 36751 36752 1
29402 36751 36753 1
29403 36751 36754 1
29404 36751 36755 1
29405 36756 36757 1
29406 36756 36758 1
29407 36756 36759 1
29408 36756 36760 1
29409 36761 36762 1
29410 36761 36763 1
29411 36761 36764 1
29412 36761 36765 1
29413 36766 36767 1
29414 36766 36768 1
29415 36766 36769 1
29416 36766 36770 1
29417 36771 36772 1
29418 36771 36773 1
29419 36771 36774 1
29420 36771 36775 1
29421 36776 36777 1
29422 36776 36778 1
29423 36776 36779 1
29424 36776 36780 1
29425 36781 36782 1
29426 36781 36783 1
29427 36781 36784 1
29428 36781 36785 1
29429 36786 36787 1
29430 36786 36788 1
29431 36786 36789 1
29432 36786 36790 1
29433 36791 36792 1
29434 36791 36793 1
29435 36791 36794 1
29436 36791 36795 1
29437 36796 36797 1
29438 36796 36798 1
29439 36796 36799 1
29440 36796 36800 1
29441 36801 36802 1
29442 36801 36803 1
29443 36801 36804 1
29444 36801 36805 1
29445 36806 36807 1
29446 36806 36808 1
29447 36806 36809 1
29448 36806 36810 1
29449 36811 36812 1
29450 36811 36813 1
29451 36811 36814 1
29452 36811 36815 1
29453 36816 36817 1
29454 36816 36818 1
29455 36816 36819 1
29456 36816 36820 1
29457 36821 36822 1
29458 36821 36823 1
29459 36821 36824 1
29460 36821 36825 1
29461 36826 36827 1
29462 36826 36828 1
29463 36826 36829 1
29464 36826 36830 1
29465 36831 36832 1
29466 36831 36833 1
29467 36831 36834 1
29468 36831 36835 1
29469 36836 36837 1
29470 36836 36838 1
29471 36836 36839 1
29472 36836 36840 1
29473 36841 36842 1
29474 36841 36843 1
29475 36841 36844 1
29476 36841 36845 1
29477 36846 36847 1
29478 36846 36848 1
29479 36846 36849 1
29480 36846 36850 1
29481 36851 36855 1
29482 36851 36852 1
29483 36851 36853 1
29484 36851 36854 1
29485 36856 36857 1
29486 36856 36858 1
29487 36856 36859 1
29488 36856 36860 1
29489 36861 36862 1
29490 36861 36863 1
29491 36861 36864 1
29492 36861 36865 1
29493 36866 36867 1
29494 36866 36868 1
29495 36866 36869 1
29496 36866 36870 1
29497 36871 36872 1
29498 36871 36873 1
29499 36871 36874 1
29500 36871 36875 1
29501 36876 36877 1
29502 36876 36878 1
29503 36876 36879 1
29504 36876 36880 1
29505 36881 36882 1
29506 36881 36883 1
29507 36881 36884 1
29508 36881 36885 1
29509 36886 36887 1
29510 36886 36888 1
29511 36886 36889 1
29512 36886 36890 1
29513 36891 36892 1
29514 36891 36893 1
29515 36891 36894 1
29516 36891 36895 1
29517 36896 36897 1
29518 36896 36898 1
29519 36896 36899 1
29520 36896 36900 1
29521 36901 36902 1
29522 36901 36903 1
29523 36901 36904 1
29524 36901 36905 1
29525 36906 36907 1
29526 36906 36908 1
29527 36906 36909 1
29528 36906 36910 1
29529 36911 36912 1
29530 36911 36913 1
29531 36911 36914 1
29532 36911 36915 1
29533 36916 36917 1
29534 36916 36918 1
29535 36916 36919 1
29536 36916 36920 1
29537 36921 36922 1
29538 36921 36923 1
29539 36921 36924 1
29540 36921 36925 1
29541 36926 36927 1
29542 36926 36928 1
29543 36926 36929 1
29544 36926 36930 1
29545 36931 36932 1
29546 36931 36933 1
29547 36931 36934 1
29548 36931 36935 1
29549 36936 36937 1
29550 36936 36938 1
29551 36936 36939 1
29552 36936 36940 1
29553 36941 36942 1
29554 36941 36943 1
29555 36941 36944 1
29556 36941 36945 1
29557 36946 36947 1
29558 36946 36948 1
29559 36946 36949 1
29560 36946 36950 1
29561 36951 36952 1
29562 36951 36953 1
29563 36951 36954 1
29564 36951 36955 1
29565 36956 36957 1
29566 36956 36958 1
29567 36956 36959 1
29568 36956 36960 1
29569 36961 36962 1
29570 36961 36963 1
29571 36961 36964 1
29572 36961 36965 1
29573 36966 36967 1
29574 36966 36968 1
29575 36966 36969 1
29576 36966 36970 1
29577 36971 36972 1
29578 36971 36973 1
29579 36971 36974 1
29580 36971 36975 1
29581 36976 36977 1
29582 36976 36978 1
29583 36976 36979 1
29584 36976 36980 1
29585 36981 36982 1
29586 36981 36983 1
29587 36981 36984 1
29588 36981 36985 1
29589 36986 36987 1
29590 36986 36988 1
29591 36986 36989 1
29592 36986 36990 1
29593 36991 36992 1
29594 36991 36993 1
29595 36991 36994 1
29596 36991 36995 1
29597 36996 36997 1
29598 36996 36998 1
29599 36996 36999 1
29600 36996 37000 1
29601 37001 37002 1
29602 37001 37003 1
29603 37001 37004 1
29604 37001 37005 1
29605 37006 37007 1
29606 37006 37008 1
29607 37006 37009 1
29608 37006 37010 1
29609 37011 37012 1
29610 37011 37013 1
29611 37011 37014 1
29612 37011 37015 1
29613 37016 37017 1
29614 37016 37018 1
29615 37016 37019 1
29616 37016 37020 1
29617 37021 37022 1
29618 37021 37023 1
29619 37021 37024 1
29620 37021 37025 1
29621 37026 37027 1
29622 37026 37028 1
29623 37026 37029 1
29624 37026 37030 1
29625 37031 37032 1
29626 37031 37033 1
29627 37031 37034 1
29628 37031 37035 1
29629 37036 37037 1
29630 37036 37038 1
29631 37036 37039 1
29632 37036 37040 1
29633 37041 37042 1
29634 37041 37043 1
29635 37041 37044 1
29636 37041 37045 1
29637 37046 37047 1
29638 37046 37048 1
29639 37046 37049 1
29640 37046 37050 1
29641 37051 37052 1
29642 37051 37053 1
29643 37051 37054 1
29644 37051 37055 1
29645 37056 37057 1
29646 37056 37058 1
29647 37056 37059 1
29648 37056 37060 1
29649 37061 37062 1
29650 37061 37063 1
29651 37061 37064 1
29652 37061 37065 1
29653 37066 37067 1
29654 37066 37068 1
29655 37066 37069 1
29656 37066 37070 1
29657 37071 37072 1
29658 37071 37073 1
29659 37071 37074 1
29660 37071 37075 1
29661 37076 37077 1
29662 37076 37078 1
29663 37076 37079 1
29664 37076 37080 1
29665 37081 37082 1
29666 37081 37083 1
29667 37081 37084 1
29668 37081 37085 1
29669 37086 37087 1
29670 37086 37088 1
29671 37086 37089 1
29672 37086 37090 1
29673 37091 37092 1
29674 37091 37093 1
29675 37091 37094 1
29676 37091 37095 1
29677 37096 37097 1
29678 37096 37098 1
29679 37096 37099 1
29680 37096 37100 1
29681 37101 37102 1
29682 37101 37103 1
29683 37101 37104 1
29684 37101 37105 1
29685 37106 37107 1
29686 37106 37108 1
29687 37106 37109 1
29688 37106 37110 1
29689 37111 37112 1
29690 37111 37113 1
29691 37111 37114 1
29692 37111 37115 1
29693 37116 37117 1
29694 37116 37118 1
29695 37116 37119 1
29696 37116 37120 1
29697 37121 37122 1
29698 37121 37123 1
29699 37121 37124 1
29700 37121 37125 1
29701 37126 37127 1
29702 37126 37128 1
29703 37126 37129 1
29704 37126 37130 1
29705 37131 37132 1
29706 37131 37133 1
29707 37131 37134 1
29708 37131 37135 1
29709 37136 37137 1
29710 37136 37138 1
29711 37136 37139 1
29712 37136 37140 1
29713 37141 37142 1
29714 37141 37143 1
29715 37141 37144 1
29716 37141 37145 1
29717 37146 37147 1
29718 37146 37148 1
29719 37146 37149 1
29720 37146 37150 1
29721 37151 37152 1
29722 37151 37153 1
29723 37151 37154 1
29724 37151 37155 1
29725 37156 37157 1
29726 37156 37158 1
29727 37156 37159 1
29728 37156 37160 1
29729 37161 37162 1
29730 37161 37163 1
29731 37161 37164 1
29732 37161 37165 1
29733 37166 37167 1
29734 37166 37168 1
29735 37166 37169 1
29736 37166 37170 1
29737 37171 37172 1
29738 37171 37173 1
29739 37171 37174 1
29740 37171 37175 1
29741 37176 37177 1
29742 37176 37178 1
29743 37176 37179 1
29744 37176 37180 1
29745 37181 37182 1
29746 37181 37183 1
29747 37181 37184 1
29748 37181 37185 1
29749 37186 37187 1
29750 37186 37188 1
29751 37186 37189 1
29752 37186 37190 1
29753 37191 37192 1
29754 37191 37193 1
29755 37191 37194 1
29756 37191 37195 1
29757 37196 37197 1
29758 37196 37198 1
29759 37196 37199 1
29760 37196 37200 1
29761 37201 37202 1
29762 37201 37203 1
29763 37201 37204 1
29764 37201 37205 1
29765 37206 37207 1
29766 37206 37208 1
29767 37206 37209 1
29768 37206 37210 1
29769 37211 37212 1
29770 37211 37213 1
29771 37211 37214 1
29772 37211 37215 1
29773 37216 37217 1
29774 37216 37218 1
29775 37216 37219 1
29776 37216 37220 1
29777 37221 37222 1
29778 37221 37223 1
29779 37221 37224 1
29780 37221 37225 1
29781 37226 37227 1
29782 37226 37228 1
29783 37226 37229 1
29784 37226 37230 1
29785 37231 37232 1
29786 37231 37233 1
29787 37231 37234 1
29788 37231 37235 1
29789 37236 37237 1
29790 37236 37238 1
29791 37236 37239 1
29792 37236 37240 1
29793 37241 37242 1
29794 37241 37243 1
29795 37241 37244 1
29796 37241 37245 1
29797 37246 37247 1
29798 37246 37248 1
29799 37246 37249 1
29800 37246 37250 1
29801 37251 37252 1
29802 37251 37253 1
29803 37251 37254 1
29804 37251 37255 1
29805 37256 37257 1
29806 37256 37258 1
29807 37256 37259 1
29808 37256 37260 1
29809 37261 37262 1
29810 37261 37263 1
29811 37261 37264 1
29812 37261 37265 1
29813 37266 37267 1
29814 37266 37268 1
29815 37266 37269 1
29816 37266 37270 1
29817 37271 37275 1
29818 37271 37272 1
29819 37271 37273 1
29820 37271 37274 1
29821 37276 37277 1
29822 37276 37278 1
29823 37276 37279 1
29824 37276 37280 1
29825 37281 37282 1
29826 37281 37283 1
29827 37281 37284 1
29828 37281 37285 1
29829 37286 37287 1
29830 37286 37288 1
29831 37286 37289 1
29832 37286 37290 1
29833 37291 37292 1
29834 37291 37293 1
29835 37291 37294 1
29836 37291 37295 1
29837 37296 37297 1
29838 37296 37298 1
29839 37296 37299 1
29840 37296 37300 1
29841 37301 37302 1
29842 37301 37303 1
29843 37301 37304 1
29844 37301 37305 1
29845 37306 37307 1
29846 37306 37308 1
29847 37306 37309 1
29848 37306 37310 1
29849 37311 37312 1
29850 37311 37313 1
29851 37311 37314 1
29852 37311 37315 1
29853 37316 37317 1
29854 37316 37318 1
29855 37316 37319 1
29856 37316 37320 1
29857 37321 37322 1
29858 37321 37323 1
29859 37321 37324 1
29860 37321 37325 1
29861 37326 37327 1
29862 37326 37328 1
29863 37326 37329 1
29864 37326 37330 1
29865 37331 37332 1
29866 37331 37333 1
29867 37331 37334 1
29868 37331 37335 1
29869 37336 37337 1
29870 37336 37338 1
29871 37336 37339 1
29872 37336 37340 1
29873 37341 37342 1
29874 37341 37343 1
29875 37341 37344 1
29876 37341 37345 1
29877 37346 37347 1
29878 37346 37348 1
29879 37346 37349 1
29880 37346 37350 1
29881 37351 37352 1
29882 37351 37353 1
29883 37351 37354 1
29884 37351 37355 1
29885 37356 37359 1
29886 37356 37360 1
29887 37356 37357 1
29888 37356 37358 1
29889 37361 37362 1
29890 37361 37363 1
29891 37361 37364 1
29892 37361 37365 1
29893 37366 37367 1
29894 37366 37368 1
29895 37366 37369 1
29896 37366 37370 1
29897 37371 37372 1
29898 37371 37374 1
29899 37371 37375 1
29900 37371 37373 1
29901 37376 37377 1
29902 37376 37378 1
29903 37376 37379 1
29904 37376 37380 1
29905 37381 37382 1
29906 37381 37383 1
29907 37381 37384 1
29908 37381 37385 1
29909 37386 37387 1
29910 37386 37388 1
29911 37386 37389 1
29912 37386 37390 1
29913 37391 37392 1
29914 37391 37393 1
29915 37391 37394 1
29916 37391 37395 1
29917 37396 37397 1
29918 37396 37398 1
29919 37396 37399 1
29920 37396 37400 1
29921 37401 37402 1
29922 37401 37403 1
29923 37401 37404 1
29924 37401 37405 1
29925 37406 37407 1
29926 37406 37408 1
29927 37406 37409 1
29928 37406 37410 1
29929 37411 37412 1
29930 37411 37413 1
29931 37411 37414 1
29932 37411 37415 1
29933 37416 37417 1
29934 37416 37418 1
29935 37416 37419 1
29936 37416 37420 1
29937 37421 37422 1
29938 37421 37423 1
29939 37421 37424 1
29940 37421 37425 1
29941 37426 37427 1
29942 37426 37428 1
29943 37426 37429 1
29944 37426 37430 1
29945 37431 37432 1
29946 37431 37433 1
29947 37431 37434 1
29948 37431 37435 1
29949 37436 37437 1
29950 37436 37438 1
29951 37436 37439 1
29952 37436 37440 1
29953 37441 37442 1
29954 37441 37443 1
29955 37441 37444 1
29956 37441 37445 1
29957 37446 37447 1
29958 37446 37448 1
29959 37446 37449 1
29960 37446 37450 1
29961 37451 37452 1
29962 37451 37453 1
29963 37451 37454 1
29964 37451 37455 1
29965 37456 37457 1
29966 37456 37458 1
29967 37456 37459 1
29968 37456 37460 1
29969 37461 37462 1
29970 37461 37463 1
29971 37461 37464 1
29972 37461 37465 1
29973 37466 37467 1
29974 37466 37468 1
29975 37466 37469 1
29976 37466 37470 1
29977 37471 37472 1
29978 37471 37473 1
29979 37471 37474 1
29980 37471 37475 1
29981 37476 37477 1
29982 37476 37478 1
29983 37476 37479 1
29984 37476 37480 1
29985 37481 37482 1
29986 37481 37483 1
29987 37481 37484 1
29988 37481 37485 1
29989 37486 37487 1
29990 37486 37488 1
29991 37486 37489 1
29992 37486 37490 1
29993 37491 37492 1
29994 37491 37493 1
29995 37491 37494 1
29996 37491 37495 1
29997 37496 37497 1
29998 37496 37498 1
29999 37496 37499 1
30000 37496 37500 1
@<TRIPOS>CRYSIN
100 100 100 90 90 90 1 1
