# Mol2 file generated by Materials Studio
@<TRIPOS>MOLECULE
structure
160 0 0 0 0 
SMALL
USER_CHARGES


@<TRIPOS>ATOM
1 Al 4.53405 2.99034 3.321 Al 0 **** 0
2 Al 4.53405 5.98966 3.321 Al 0 **** 0
3 Al 1.94405 7.48034 3.321 Al 0 **** 0
4 Al 1.94405 1.49966 3.321 Al 0 **** 0
5 Si 2.89458 2.95442 0.645 Si 0 **** 0
6 Si 2.89458 6.02558 0.645 Si 0 **** 0
7 Si 3.58404 7.44442 5.9985 Si 0 **** 0
8 Si 3.58404 1.53558 5.9985 Si 0 **** 0
9 Si 0.304584 7.44442 0.645 Si 0 **** 0
10 Si 0.304584 1.53558 0.645 Si 0 **** 0
11 Si 0.994042 2.95442 5.9985 Si 0 **** 0
12 Si 0.994042 6.02558 5.9985 Si 0 **** 0
13 O 2.65941 4.49 0.1485 O.3 0 **** 0
14 O 4.28904 6.53744 0 O.3 0 **** 0
15 O 4.28904 2.44256 0 O.3 0 **** 0
16 O 2.56617 0 2.28 O.3 0 **** 0
17 O 2.94328 6.20518 2.2305 O.3 0 **** 0
18 O 2.964 2.77482 2.2305 O.3 0 **** 0
19 O 3.81921 0 6.4935 O.3 0 **** 0
20 O 2.18959 2.04744 6.642 O.3 0 **** 0
21 O 2.18959 6.93256 6.642 O.3 0 **** 0
22 O 3.91245 4.49 4.362 O.3 0 **** 0
23 O 3.53483 1.71518 4.4115 O.3 0 **** 0
24 O 3.51411 7.26482 4.4115 O.3 0 **** 0
25 O 0.069412 0 0.1485 O.3 0 **** 0
26 O 1.69904 2.04744 0 O.3 0 **** 0
27 O 1.69904 6.93256 0 O.3 0 **** 0
28 O 5.15617 4.49 2.28 O.3 0 **** 0
29 O 0.353276 1.71518 2.2305 O.3 0 **** 0
30 O 0.373996 7.26482 2.2305 O.3 0 **** 0
31 O 1.22921 4.49 6.4935 O.3 0 **** 0
32 O 4.77959 6.53744 6.642 O.3 0 **** 0
33 O 4.77959 2.44256 6.642 O.3 0 **** 0
34 O 1.32245 0 4.362 O.3 0 **** 0
35 O 0.944832 6.20518 4.4115 O.3 0 **** 0
36 O 0.924112 2.77482 4.4115 O.3 0 **** 0
37 Al 9.71405 2.99034 3.321 Al 0 **** 0
38 Al 9.71405 5.98966 3.321 Al 0 **** 0
39 Al 7.12405 7.48034 3.321 Al 0 **** 0
40 Al 7.12405 1.49966 3.321 Al 0 **** 0
41 Si 8.07458 2.95442 0.645 Si 0 **** 0
42 Si 8.07458 6.02558 0.645 Si 0 **** 0
43 Si 8.76404 7.44442 5.9985 Si 0 **** 0
44 Si 8.76404 1.53558 5.9985 Si 0 **** 0
45 Si 5.48458 7.44442 0.645 Si 0 **** 0
46 Si 5.48458 1.53558 0.645 Si 0 **** 0
47 Si 6.17404 2.95442 5.9985 Si 0 **** 0
48 Si 6.17404 6.02558 5.9985 Si 0 **** 0
49 O 7.83941 4.49 0.1485 O.3 0 **** 0
50 O 9.46904 6.53744 0 O.3 0 **** 0
51 O 9.46904 2.44256 0 O.3 0 **** 0
52 O 7.74617 0 2.28 O.3 0 **** 0
53 O 8.12328 6.20518 2.2305 O.3 0 **** 0
54 O 8.144 2.77482 2.2305 O.3 0 **** 0
55 O 8.99921 0 6.4935 O.3 0 **** 0
56 O 7.36959 2.04744 6.642 O.3 0 **** 0
57 O 7.36959 6.93256 6.642 O.3 0 **** 0
58 O 9.09245 4.49 4.362 O.3 0 **** 0
59 O 8.71483 1.71518 4.4115 O.3 0 **** 0
60 O 8.69411 7.26482 4.4115 O.3 0 **** 0
61 O 5.24941 0 0.1485 O.3 0 **** 0
62 O 6.87904 2.04744 0 O.3 0 **** 0
63 O 6.87904 6.93256 0 O.3 0 **** 0
64 O 10.3362 4.49 2.28 O.3 0 **** 0
65 O 5.53328 1.71518 2.2305 O.3 0 **** 0
66 O 5.554 7.26482 2.2305 O.3 0 **** 0
67 O 6.40921 4.49 6.4935 O.3 0 **** 0
68 O 9.95959 6.53744 6.642 O.3 0 **** 0
69 O 9.95959 2.44256 6.642 O.3 0 **** 0
70 O 6.50245 0 4.362 O.3 0 **** 0
71 O 6.12483 6.20518 4.4115 O.3 0 **** 0
72 O 6.10411 2.77482 4.4115 O.3 0 **** 0
73 Al 4.53405 11.9703 3.321 Al 0 **** 0
74 Al 4.53405 14.9697 3.321 Al 0 **** 0
75 Al 1.94405 16.4603 3.321 Al 0 **** 0
76 Al 1.94405 10.4797 3.321 Al 0 **** 0
77 Si 2.89458 11.9344 0.645 Si 0 **** 0
78 Si 2.89458 15.0056 0.645 Si 0 **** 0
79 Si 3.58404 16.4244 5.9985 Si 0 **** 0
80 Si 3.58404 10.5156 5.9985 Si 0 **** 0
81 Si 0.304584 16.4244 0.645 Si 0 **** 0
82 Si 0.304584 10.5156 0.645 Si 0 **** 0
83 Si 0.994042 11.9344 5.9985 Si 0 **** 0
84 Si 0.994042 15.0056 5.9985 Si 0 **** 0
85 O 2.65941 13.47 0.1485 O.3 0 **** 0
86 O 4.28904 15.5174 0 O.3 0 **** 0
87 O 4.28904 11.4226 0 O.3 0 **** 0
88 O 2.56617 8.98 2.28 O.3 0 **** 0
89 O 2.94328 15.1852 2.2305 O.3 0 **** 0
90 O 2.964 11.7548 2.2305 O.3 0 **** 0
91 O 3.81921 8.98 6.4935 O.3 0 **** 0
92 O 2.18959 11.0274 6.642 O.3 0 **** 0
93 O 2.18959 15.9126 6.642 O.3 0 **** 0
94 O 3.91245 13.47 4.362 O.3 0 **** 0
95 O 3.53483 10.6952 4.4115 O.3 0 **** 0
96 O 3.51411 16.2448 4.4115 O.3 0 **** 0
97 O 0.069412 8.98 0.1485 O.3 0 **** 0
98 O 1.69904 11.0274 0 O.3 0 **** 0
99 O 1.69904 15.9126 0 O.3 0 **** 0
100 O 5.15617 13.47 2.28 O.3 0 **** 0
101 O 0.353276 10.6952 2.2305 O.3 0 **** 0
102 O 0.373996 16.2448 2.2305 O.3 0 **** 0
103 O 1.22921 13.47 6.4935 O.3 0 **** 0
104 O 4.77959 15.5174 6.642 O.3 0 **** 0
105 O 4.77959 11.4226 6.642 O.3 0 **** 0
106 O 1.32245 8.98 4.362 O.3 0 **** 0
107 O 0.944832 15.1852 4.4115 O.3 0 **** 0
108 O 0.924112 11.7548 4.4115 O.3 0 **** 0
109 Al 9.71405 11.9703 3.321 Al 0 **** 0
110 Al 9.71405 14.9697 3.321 Al 0 **** 0
111 Al 7.12405 16.4603 3.321 Al 0 **** 0
112 Al 7.12405 10.4797 3.321 Al 0 **** 0
113 Si 8.07458 11.9344 0.645 Si 0 **** 0
114 Si 8.07458 15.0056 0.645 Si 0 **** 0
115 Si 8.76404 16.4244 5.9985 Si 0 **** 0
116 Si 8.76404 10.5156 5.9985 Si 0 **** 0
117 Si 5.48458 16.4244 0.645 Si 0 **** 0
118 Si 5.48458 10.5156 0.645 Si 0 **** 0
119 Si 6.17404 11.9344 5.9985 Si 0 **** 0
120 Si 6.17404 15.0056 5.9985 Si 0 **** 0
121 O 7.83941 13.47 0.1485 O.3 0 **** 0
122 O 9.46904 15.5174 0 O.3 0 **** 0
123 O 9.46904 11.4226 0 O.3 0 **** 0
124 O 7.74617 8.98 2.28 O.3 0 **** 0
125 O 8.12328 15.1852 2.2305 O.3 0 **** 0
126 O 8.144 11.7548 2.2305 O.3 0 **** 0
127 O 8.99921 8.98 6.4935 O.3 0 **** 0
128 O 7.36959 11.0274 6.642 O.3 0 **** 0
129 O 7.36959 15.9126 6.642 O.3 0 **** 0
130 O 9.09245 13.47 4.362 O.3 0 **** 0
131 O 8.71483 10.6952 4.4115 O.3 0 **** 0
132 O 8.69411 16.2448 4.4115 O.3 0 **** 0
133 O 5.24941 8.98 0.1485 O.3 0 **** 0
134 O 6.87904 11.0274 0 O.3 0 **** 0
135 O 6.87904 15.9126 0 O.3 0 **** 0
136 O 10.3362 13.47 2.28 O.3 0 **** 0
137 O 5.53328 10.6952 2.2305 O.3 0 **** 0
138 O 5.554 16.2448 2.2305 O.3 0 **** 0
139 O 6.40921 13.47 6.4935 O.3 0 **** 0
140 O 9.95959 15.5174 6.642 O.3 0 **** 0
141 O 9.95959 11.4226 6.642 O.3 0 **** 0
142 O 6.50245 8.98 4.362 O.3 0 **** 0
143 O 6.12483 15.1852 4.4115 O.3 0 **** 0
144 O 6.10411 11.7548 4.4115 O.3 0 **** 0
145 H 3.5914 0.00233127 2.70716 H 0 **** 0
146 H 2.81115 4.47519 4.49999 H 0 **** 0
147 H 6.17462 4.4886 2.72314 H 0 **** 0
148 H 0.222067 -0.015796 4.50705 H 0 **** 0
149 H 8.84504 -0.00154054 2.11731 H 0 **** 0
150 H 7.98963 4.47563 4.47217 H 0 **** 0
151 H 11.4372 4.48772 2.13293 H 0 **** 0
152 H 5.40024 -0.014203 4.47689 H 0 **** 0
153 H 3.58671 8.98352 2.71827 H 0 **** 0
154 H 2.81102 13.4537 4.4988 H 0 **** 0
155 H 6.17463 13.4754 2.72309 H 0 **** 0
156 H 0.221386 8.96241 4.50157 H 0 **** 0
157 H 8.84526 8.97707 2.11889 H 0 **** 0
158 H 7.98964 13.4601 4.4727 H 0 **** 0
159 H 11.4367 13.4684 2.12926 H 0 **** 0
160 H 5.40013 8.96627 4.47607 H 0 **** 0
@<TRIPOS>BOND
@<TRIPOS>CRYSIN
10.36 17.96 15 90 90 90 1 1
