# Mol2 file generated by Materials Studio
@<TRIPOS>MOLECULE
structure
326 0 0 0 0 
SMALL
USER_CHARGES


@<TRIPOS>ATOM
1 Al 4.53405 2.99034 3.321 Al 0 **** 0
2 Al 4.53405 5.98966 3.321 Al 0 **** 0
3 Al 1.94405 7.48034 3.321 Mg 0 **** 0
4 Al 1.94405 1.49966 3.321 Al 0 **** 0
5 Si 2.89458 2.95442 0.645 Si 0 **** 0
6 Si 2.89458 6.02558 0.645 Si 0 **** 0
7 Si 3.58404 7.44442 5.9985 Si 0 **** 0
8 Si 3.58404 1.53558 5.9985 Si 0 **** 0
9 Si 0.304584 7.44442 0.645 Si 0 **** 0
10 Si 0.304584 1.53558 0.645 Si 0 **** 0
11 Si 0.994042 2.95442 5.9985 Si 0 **** 0
12 Si 0.994042 6.02558 5.9985 Si 0 **** 0
13 O 2.65941 4.49 0.1485 O.3 0 **** 0
14 O 4.28904 6.53744 0 O.3 0 **** 0
15 O 4.28904 2.44256 0 O.3 0 **** 0
16 O 2.56617 0 2.28 O.3 0 **** 0
17 O 2.94328 6.20518 2.2305 O.3 0 **** 0
18 O 2.964 2.77482 2.2305 O.3 0 **** 0
19 O 3.81921 0 6.4935 O.3 0 **** 0
20 O 2.18959 2.04744 6.642 O.3 0 **** 0
21 O 2.18959 6.93256 6.642 O.3 0 **** 0
22 O 3.91245 4.49 4.362 O.3 0 **** 0
23 O 3.53483 1.71518 4.4115 O.3 0 **** 0
24 O 3.51411 7.26482 4.4115 O.3 0 **** 0
25 O 0.069412 0 0.1485 O.3 0 **** 0
26 O 1.69904 2.04744 0 O.3 0 **** 0
27 O 1.69904 6.93256 0 O.3 0 **** 0
28 O 5.15617 4.49 2.28 O.3 0 **** 0
29 O 0.353276 1.71518 2.2305 O.3 0 **** 0
30 O 0.373996 7.26482 2.2305 O.3 0 **** 0
31 O 1.22921 4.49 6.4935 O.3 0 **** 0
32 O 4.77959 6.53744 6.642 O.3 0 **** 0
33 O 4.77959 2.44256 6.642 O.3 0 **** 0
34 O 1.32245 0 4.362 O.3 0 **** 0
35 O 0.944832 6.20518 4.4115 O.3 0 **** 0
36 O 0.924112 2.77482 4.4115 O.3 0 **** 0
37 Al 9.71405 2.99034 3.321 Al 0 **** 0
38 Al 9.71405 5.98966 3.321 Al 0 **** 0
39 Al 7.12405 7.48034 3.321 Al 0 **** 0
40 Al 7.12405 1.49966 3.321 Al 0 **** 0
41 Si 8.07458 2.95442 0.645 Si 0 **** 0
42 Si 8.07458 6.02558 0.645 Si 0 **** 0
43 Si 8.76404 7.44442 5.9985 Si 0 **** 0
44 Si 8.76404 1.53558 5.9985 Si 0 **** 0
45 Si 5.48458 7.44442 0.645 Si 0 **** 0
46 Si 5.48458 1.53558 0.645 Si 0 **** 0
47 Si 6.17404 2.95442 5.9985 Si 0 **** 0
48 Si 6.17404 6.02558 5.9985 Si 0 **** 0
49 O 7.83941 4.49 0.1485 O.3 0 **** 0
50 O 9.46904 6.53744 0 O.3 0 **** 0
51 O 9.46904 2.44256 0 O.3 0 **** 0
52 O 7.74617 0 2.28 O.3 0 **** 0
53 O 8.12328 6.20518 2.2305 O.3 0 **** 0
54 O 8.144 2.77482 2.2305 O.3 0 **** 0
55 O 8.99921 0 6.4935 O.3 0 **** 0
56 O 7.36959 2.04744 6.642 O.3 0 **** 0
57 O 7.36959 6.93256 6.642 O.3 0 **** 0
58 O 9.09245 4.49 4.362 O.3 0 **** 0
59 O 8.71483 1.71518 4.4115 O.3 0 **** 0
60 O 8.69411 7.26482 4.4115 O.3 0 **** 0
61 O 5.24941 0 0.1485 O.3 0 **** 0
62 O 6.87904 2.04744 0 O.3 0 **** 0
63 O 6.87904 6.93256 0 O.3 0 **** 0
64 O 10.3362 4.49 2.28 O.3 0 **** 0
65 O 5.53328 1.71518 2.2305 O.3 0 **** 0
66 O 5.554 7.26482 2.2305 O.3 0 **** 0
67 O 6.40921 4.49 6.4935 O.3 0 **** 0
68 O 9.95959 6.53744 6.642 O.3 0 **** 0
69 O 9.95959 2.44256 6.642 O.3 0 **** 0
70 O 6.50245 0 4.362 O.3 0 **** 0
71 O 6.12483 6.20518 4.4115 O.3 0 **** 0
72 O 6.10411 2.77482 4.4115 O.3 0 **** 0
73 Al 4.53405 11.9703 3.321 Al 0 **** 0
74 Al 4.53405 14.9697 3.321 Al 0 **** 0
75 Al 1.94405 16.4603 3.321 Al 0 **** 0
76 Al 1.94405 10.4797 3.321 Al 0 **** 0
77 Si 2.89458 11.9344 0.645 Si 0 **** 0
78 Si 2.89458 15.0056 0.645 Si 0 **** 0
79 Si 3.58404 16.4244 5.9985 Si 0 **** 0
80 Si 3.58404 10.5156 5.9985 Si 0 **** 0
81 Si 0.304584 16.4244 0.645 Si 0 **** 0
82 Si 0.304584 10.5156 0.645 Si 0 **** 0
83 Si 0.994042 11.9344 5.9985 Si 0 **** 0
84 Si 0.994042 15.0056 5.9985 Si 0 **** 0
85 O 2.65941 13.47 0.1485 O.3 0 **** 0
86 O 4.28904 15.5174 0 O.3 0 **** 0
87 O 4.28904 11.4226 0 O.3 0 **** 0
88 O 2.56617 8.98 2.28 O.3 0 **** 0
89 O 2.94328 15.1852 2.2305 O.3 0 **** 0
90 O 2.964 11.7548 2.2305 O.3 0 **** 0
91 O 3.81921 8.98 6.4935 O.3 0 **** 0
92 O 2.18959 11.0274 6.642 O.3 0 **** 0
93 O 2.18959 15.9126 6.642 O.3 0 **** 0
94 O 3.91245 13.47 4.362 O.3 0 **** 0
95 O 3.53483 10.6952 4.4115 O.3 0 **** 0
96 O 3.51411 16.2448 4.4115 O.3 0 **** 0
97 O 0.069412 8.98 0.1485 O.3 0 **** 0
98 O 1.69904 11.0274 0 O.3 0 **** 0
99 O 1.69904 15.9126 0 O.3 0 **** 0
100 O 5.15617 13.47 2.28 O.3 0 **** 0
101 O 0.353276 10.6952 2.2305 O.3 0 **** 0
102 O 0.373996 16.2448 2.2305 O.3 0 **** 0
103 O 1.22921 13.47 6.4935 O.3 0 **** 0
104 O 4.77959 15.5174 6.642 O.3 0 **** 0
105 O 4.77959 11.4226 6.642 O.3 0 **** 0
106 O 1.32245 8.98 4.362 O.3 0 **** 0
107 O 0.944832 15.1852 4.4115 O.3 0 **** 0
108 O 0.924112 11.7548 4.4115 O.3 0 **** 0
109 Al 9.71405 11.9703 3.321 Al 0 **** 0
110 Al 9.71405 14.9697 3.321 Al 0 **** 0
111 Al 7.12405 16.4603 3.321 Al 0 **** 0
112 Al 7.12405 10.4797 3.321 Mg 0 **** 0
113 Si 8.07458 11.9344 0.645 Si 0 **** 0
114 Si 8.07458 15.0056 0.645 Si 0 **** 0
115 Si 8.76404 16.4244 5.9985 Si 0 **** 0
116 Si 8.76404 10.5156 5.9985 Si 0 **** 0
117 Si 5.48458 16.4244 0.645 Si 0 **** 0
118 Si 5.48458 10.5156 0.645 Si 0 **** 0
119 Si 6.17404 11.9344 5.9985 Si 0 **** 0
120 Si 6.17404 15.0056 5.9985 Al 0 **** 0
121 O 7.83941 13.47 0.1485 O.3 0 **** 0
122 O 9.46904 15.5174 0 O.3 0 **** 0
123 O 9.46904 11.4226 0 O.3 0 **** 0
124 O 7.74617 8.98 2.28 O.3 0 **** 0
125 O 8.12328 15.1852 2.2305 O.3 0 **** 0
126 O 8.144 11.7548 2.2305 O.3 0 **** 0
127 O 8.99921 8.98 6.4935 O.3 0 **** 0
128 O 7.36959 11.0274 6.642 O.3 0 **** 0
129 O 7.36959 15.9126 6.642 O.3 0 **** 0
130 O 9.09245 13.47 4.362 O.3 0 **** 0
131 O 8.71483 10.6952 4.4115 O.3 0 **** 0
132 O 8.69411 16.2448 4.4115 O.3 0 **** 0
133 O 5.24941 8.98 0.1485 O.3 0 **** 0
134 O 6.87904 11.0274 0 O.3 0 **** 0
135 O 6.87904 15.9126 0 O.3 0 **** 0
136 O 10.3362 13.47 2.28 O.3 0 **** 0
137 O 5.53328 10.6952 2.2305 O.3 0 **** 0
138 O 5.554 16.2448 2.2305 O.3 0 **** 0
139 O 6.40921 13.47 6.4935 O.3 0 **** 0
140 O 9.95959 15.5174 6.642 O.3 0 **** 0
141 O 9.95959 11.4226 6.642 O.3 0 **** 0
142 O 6.50245 8.98 4.362 O.3 0 **** 0
143 O 6.12483 15.1852 4.4115 O.3 0 **** 0
144 O 6.10411 11.7548 4.4115 O.3 0 **** 0
145 H 3.5914 0.00233127 2.70716 H 0 **** 0
146 H 2.81115 4.47519 4.49999 H 0 **** 0
147 H 6.17462 4.4886 2.72314 H 0 **** 0
148 H 0.222067 17.9442 4.50705 H 0 **** 0
149 H 8.84504 17.9585 2.11731 H 0 **** 0
150 H 7.98963 4.47563 4.47217 H 0 **** 0
151 H 1.07718 4.48772 2.13293 H 0 **** 0
152 H 5.40024 17.9458 4.47689 H 0 **** 0
153 H 3.58671 8.98352 2.71827 H 0 **** 0
154 H 2.81102 13.4537 4.4988 H 0 **** 0
155 H 6.17463 13.4754 2.72309 H 0 **** 0
156 H 0.221386 8.96241 4.50157 H 0 **** 0
157 H 8.84526 8.97707 2.11889 H 0 **** 0
158 H 7.98964 13.4601 4.4727 H 0 **** 0
159 H 1.0767 13.4684 2.12926 H 0 **** 0
160 H 5.40013 8.96627 4.47607 H 0 **** 0
161 Na 1.036 1.796 10.05 Na 0 **** 0
162 Na 4.144 7.184 10.05 Na 0 **** 0
163 Na 7.252 12.572 10.05 Na 0 **** 0
164 Al 14.8941 2.99034 3.321 Al 0 **** 0
165 Al 14.8941 5.98966 3.321 Al 0 **** 0
166 Al 12.3041 7.48034 3.321 Mg 0 **** 0
167 Al 12.3041 1.49966 3.321 Al 0 **** 0
168 Si 13.2546 2.95442 0.645 Si 0 **** 0
169 Si 13.2546 6.02558 0.645 Si 0 **** 0
170 Si 13.944 7.44442 5.9985 Si 0 **** 0
171 Si 13.944 1.53558 5.9985 Si 0 **** 0
172 Si 10.6646 7.44442 0.645 Si 0 **** 0
173 Si 10.6646 1.53558 0.645 Si 0 **** 0
174 Si 11.354 2.95442 5.9985 Si 0 **** 0
175 Si 11.354 6.02558 5.9985 Si 0 **** 0
176 O 13.0194 4.49 0.1485 O.3 0 **** 0
177 O 14.649 6.53744 0 O.3 0 **** 0
178 O 14.649 2.44256 0 O.3 0 **** 0
179 O 12.9262 0 2.28 O.3 0 **** 0
180 O 13.3033 6.20518 2.2305 O.3 0 **** 0
181 O 13.324 2.77482 2.2305 O.3 0 **** 0
182 O 14.1792 0 6.4935 O.3 0 **** 0
183 O 12.5496 2.04744 6.642 O.3 0 **** 0
184 O 12.5496 6.93256 6.642 O.3 0 **** 0
185 O 14.2725 4.49 4.362 O.3 0 **** 0
186 O 13.8948 1.71518 4.4115 O.3 0 **** 0
187 O 13.8741 7.26482 4.4115 O.3 0 **** 0
188 O 10.4294 0 0.1485 O.3 0 **** 0
189 O 12.059 2.04744 0 O.3 0 **** 0
190 O 12.059 6.93256 0 O.3 0 **** 0
191 O 15.5162 4.49 2.28 O.3 0 **** 0
192 O 10.7133 1.71518 2.2305 O.3 0 **** 0
193 O 10.734 7.26482 2.2305 O.3 0 **** 0
194 O 11.5892 4.49 6.4935 O.3 0 **** 0
195 O 15.1396 6.53744 6.642 O.3 0 **** 0
196 O 15.1396 2.44256 6.642 O.3 0 **** 0
197 O 11.6825 0 4.362 O.3 0 **** 0
198 O 11.3048 6.20518 4.4115 O.3 0 **** 0
199 O 11.2841 2.77482 4.4115 O.3 0 **** 0
200 Al 20.0741 2.99034 3.321 Al 0 **** 0
201 Al 20.0741 5.98966 3.321 Al 0 **** 0
202 Al 17.4841 7.48034 3.321 Al 0 **** 0
203 Al 17.4841 1.49966 3.321 Al 0 **** 0
204 Si 18.4346 2.95442 0.645 Si 0 **** 0
205 Si 18.4346 6.02558 0.645 Si 0 **** 0
206 Si 19.124 7.44442 5.9985 Si 0 **** 0
207 Si 19.124 1.53558 5.9985 Si 0 **** 0
208 Si 15.8446 7.44442 0.645 Si 0 **** 0
209 Si 15.8446 1.53558 0.645 Si 0 **** 0
210 Si 16.534 2.95442 5.9985 Si 0 **** 0
211 Si 16.534 6.02558 5.9985 Si 0 **** 0
212 O 18.1994 4.49 0.1485 O.3 0 **** 0
213 O 19.829 6.53744 0 O.3 0 **** 0
214 O 19.829 2.44256 0 O.3 0 **** 0
215 O 18.1062 0 2.28 O.3 0 **** 0
216 O 18.4833 6.20518 2.2305 O.3 0 **** 0
217 O 18.504 2.77482 2.2305 O.3 0 **** 0
218 O 19.3592 0 6.4935 O.3 0 **** 0
219 O 17.7296 2.04744 6.642 O.3 0 **** 0
220 O 17.7296 6.93256 6.642 O.3 0 **** 0
221 O 19.4525 4.49 4.362 O.3 0 **** 0
222 O 19.0748 1.71518 4.4115 O.3 0 **** 0
223 O 19.0541 7.26482 4.4115 O.3 0 **** 0
224 O 15.6094 0 0.1485 O.3 0 **** 0
225 O 17.239 2.04744 0 O.3 0 **** 0
226 O 17.239 6.93256 0 O.3 0 **** 0
227 O 20.6962 4.49 2.28 O.3 0 **** 0
228 O 15.8933 1.71518 2.2305 O.3 0 **** 0
229 O 15.914 7.26482 2.2305 O.3 0 **** 0
230 O 16.7692 4.49 6.4935 O.3 0 **** 0
231 O 20.3196 6.53744 6.642 O.3 0 **** 0
232 O 20.3196 2.44256 6.642 O.3 0 **** 0
233 O 16.8625 0 4.362 O.3 0 **** 0
234 O 16.4848 6.20518 4.4115 O.3 0 **** 0
235 O 16.4641 2.77482 4.4115 O.3 0 **** 0
236 Al 14.8941 11.9703 3.321 Al 0 **** 0
237 Al 14.8941 14.9697 3.321 Al 0 **** 0
238 Al 12.3041 16.4603 3.321 Al 0 **** 0
239 Al 12.3041 10.4797 3.321 Al 0 **** 0
240 Si 13.2546 11.9344 0.645 Si 0 **** 0
241 Si 13.2546 15.0056 0.645 Si 0 **** 0
242 Si 13.944 16.4244 5.9985 Si 0 **** 0
243 Si 13.944 10.5156 5.9985 Si 0 **** 0
244 Si 10.6646 16.4244 0.645 Si 0 **** 0
245 Si 10.6646 10.5156 0.645 Si 0 **** 0
246 Si 11.354 11.9344 5.9985 Si 0 **** 0
247 Si 11.354 15.0056 5.9985 Si 0 **** 0
248 O 13.0194 13.47 0.1485 O.3 0 **** 0
249 O 14.649 15.5174 0 O.3 0 **** 0
250 O 14.649 11.4226 0 O.3 0 **** 0
251 O 12.9262 8.98 2.28 O.3 0 **** 0
252 O 13.3033 15.1852 2.2305 O.3 0 **** 0
253 O 13.324 11.7548 2.2305 O.3 0 **** 0
254 O 14.1792 8.98 6.4935 O.3 0 **** 0
255 O 12.5496 11.0274 6.642 O.3 0 **** 0
256 O 12.5496 15.9126 6.642 O.3 0 **** 0
257 O 14.2725 13.47 4.362 O.3 0 **** 0
258 O 13.8948 10.6952 4.4115 O.3 0 **** 0
259 O 13.8741 16.2448 4.4115 O.3 0 **** 0
260 O 10.4294 8.98 0.1485 O.3 0 **** 0
261 O 12.059 11.0274 0 O.3 0 **** 0
262 O 12.059 15.9126 0 O.3 0 **** 0
263 O 15.5162 13.47 2.28 O.3 0 **** 0
264 O 10.7133 10.6952 2.2305 O.3 0 **** 0
265 O 10.734 16.2448 2.2305 O.3 0 **** 0
266 O 11.5892 13.47 6.4935 O.3 0 **** 0
267 O 15.1396 15.5174 6.642 O.3 0 **** 0
268 O 15.1396 11.4226 6.642 O.3 0 **** 0
269 O 11.6825 8.98 4.362 O.3 0 **** 0
270 O 11.3048 15.1852 4.4115 O.3 0 **** 0
271 O 11.2841 11.7548 4.4115 O.3 0 **** 0
272 Al 20.0741 11.9703 3.321 Al 0 **** 0
273 Al 20.0741 14.9697 3.321 Al 0 **** 0
274 Al 17.4841 16.4603 3.321 Al 0 **** 0
275 Al 17.4841 10.4797 3.321 Mg 0 **** 0
276 Si 18.4346 11.9344 0.645 Si 0 **** 0
277 Si 18.4346 15.0056 0.645 Si 0 **** 0
278 Si 19.124 16.4244 5.9985 Si 0 **** 0
279 Si 19.124 10.5156 5.9985 Si 0 **** 0
280 Si 15.8446 16.4244 0.645 Si 0 **** 0
281 Si 15.8446 10.5156 0.645 Si 0 **** 0
282 Si 16.534 11.9344 5.9985 Si 0 **** 0
283 Si 16.534 15.0056 5.9985 Al 0 **** 0
284 O 18.1994 13.47 0.1485 O.3 0 **** 0
285 O 19.829 15.5174 0 O.3 0 **** 0
286 O 19.829 11.4226 0 O.3 0 **** 0
287 O 18.1062 8.98 2.28 O.3 0 **** 0
288 O 18.4833 15.1852 2.2305 O.3 0 **** 0
289 O 18.504 11.7548 2.2305 O.3 0 **** 0
290 O 19.3592 8.98 6.4935 O.3 0 **** 0
291 O 17.7296 11.0274 6.642 O.3 0 **** 0
292 O 17.7296 15.9126 6.642 O.3 0 **** 0
293 O 19.4525 13.47 4.362 O.3 0 **** 0
294 O 19.0748 10.6952 4.4115 O.3 0 **** 0
295 O 19.0541 16.2448 4.4115 O.3 0 **** 0
296 O 15.6094 8.98 0.1485 O.3 0 **** 0
297 O 17.239 11.0274 0 O.3 0 **** 0
298 O 17.239 15.9126 0 O.3 0 **** 0
299 O 20.6962 13.47 2.28 O.3 0 **** 0
300 O 15.8933 10.6952 2.2305 O.3 0 **** 0
301 O 15.914 16.2448 2.2305 O.3 0 **** 0
302 O 16.7692 13.47 6.4935 O.3 0 **** 0
303 O 20.3196 15.5174 6.642 O.3 0 **** 0
304 O 20.3196 11.4226 6.642 O.3 0 **** 0
305 O 16.8625 8.98 4.362 O.3 0 **** 0
306 O 16.4848 15.1852 4.4115 O.3 0 **** 0
307 O 16.4641 11.7548 4.4115 O.3 0 **** 0
308 H 13.9514 0.00233127 2.70716 H 0 **** 0
309 H 13.1711 4.47519 4.49999 H 0 **** 0
310 H 16.5346 4.4886 2.72314 H 0 **** 0
311 H 10.5821 17.9442 4.50705 H 0 **** 0
312 H 19.205 17.9585 2.11731 H 0 **** 0
313 H 18.3496 4.47563 4.47217 H 0 **** 0
314 H 11.4372 4.48772 2.13293 H 0 **** 0
315 H 15.7602 17.9458 4.47689 H 0 **** 0
316 H 13.9467 8.98352 2.71827 H 0 **** 0
317 H 13.171 13.4537 4.4988 H 0 **** 0
318 H 16.5346 13.4754 2.72309 H 0 **** 0
319 H 10.5814 8.96241 4.50157 H 0 **** 0
320 H 19.2053 8.97707 2.11889 H 0 **** 0
321 H 18.3496 13.4601 4.4727 H 0 **** 0
322 H 11.4367 13.4684 2.12926 H 0 **** 0
323 H 15.7601 8.96627 4.47607 H 0 **** 0
324 Na 11.396 1.796 10.05 Na 0 **** 0
325 Na 14.504 7.184 10.05 Na 0 **** 0
326 Na 17.612 12.572 10.05 Na 0 **** 0
@<TRIPOS>BOND
@<TRIPOS>CRYSIN
20.72 17.96 15 90 90 90 1 1
