# Mol2 file generated by Materials Studio
@<TRIPOS>MOLECULE
structure
163 0 0 0 0 
SMALL
USER_CHARGES


@<TRIPOS>ATOM
1 Al 4.57578 2.99515 5.62003 Al 0 **** 0
2 Al 4.57578 5.99447 5.62003 Al 0 **** 0
3 Al 1.98578 7.48515 5.62003 Mg 0 **** 0
4 Al 1.98578 1.50447 5.62003 Al 0 **** 0
5 Si 2.93631 2.95923 2.94403 Si 0 **** 0
6 Si 2.93631 6.03039 2.94403 Si 0 **** 0
7 Si 3.62577 7.44923 8.29753 Si 0 **** 0
8 Si 3.62577 1.54039 8.29753 Si 0 **** 0
9 Si 0.346307 7.44923 2.94403 Si 0 **** 0
10 Si 0.346307 1.54039 2.94403 Si 0 **** 0
11 Si 1.03577 2.95923 8.29753 Si 0 **** 0
12 Si 1.03577 6.03039 8.29753 Si 0 **** 0
13 O 2.70114 4.49481 2.44753 O.3 0 **** 0
14 O 4.33076 6.54225 2.29903 O.3 0 **** 0
15 O 4.33076 2.44737 2.29903 O.3 0 **** 0
16 O 2.6079 0.00481436 4.57903 O.3 0 **** 0
17 O 2.985 6.20999 4.52953 O.3 0 **** 0
18 O 3.00572 2.77963 4.52953 O.3 0 **** 0
19 O 3.86094 0.00481436 8.79253 O.3 0 **** 0
20 O 2.23131 2.05225 8.94103 O.3 0 **** 0
21 O 2.23131 6.93737 8.94103 O.3 0 **** 0
22 O 3.95418 4.49481 6.66103 O.3 0 **** 0
23 O 3.57656 1.71999 6.71053 O.3 0 **** 0
24 O 3.55584 7.26963 6.71053 O.3 0 **** 0
25 O 0.111135 0.00481436 2.44753 O.3 0 **** 0
26 O 1.74076 2.05225 2.29903 O.3 0 **** 0
27 O 1.74076 6.93737 2.29903 O.3 0 **** 0
28 O 5.1979 4.49481 4.57903 O.3 0 **** 0
29 O 0.394999 1.71999 4.52953 O.3 0 **** 0
30 O 0.415719 7.26963 4.52953 O.3 0 **** 0
31 O 1.27094 4.49481 8.79253 O.3 0 **** 0
32 O 4.82131 6.54225 8.94103 O.3 0 **** 0
33 O 4.82131 2.44737 8.94103 O.3 0 **** 0
34 O 1.36418 0.00481436 6.66103 O.3 0 **** 0
35 O 0.986555 6.20999 6.71053 O.3 0 **** 0
36 O 0.965835 2.77963 6.71053 O.3 0 **** 0
37 Al 9.75578 2.99515 5.62003 Al 0 **** 0
38 Al 9.75578 5.99447 5.62003 Al 0 **** 0
39 Al 7.16578 7.48515 5.62003 Al 0 **** 0
40 Al 7.16578 1.50447 5.62003 Al 0 **** 0
41 Si 8.11631 2.95923 2.94403 Si 0 **** 0
42 Si 8.11631 6.03039 2.94403 Si 0 **** 0
43 Si 8.80577 7.44923 8.29753 Si 0 **** 0
44 Si 8.80577 1.54039 8.29753 Si 0 **** 0
45 Si 5.52631 7.44923 2.94403 Si 0 **** 0
46 Si 5.52631 1.54039 2.94403 Si 0 **** 0
47 Si 6.21577 2.95923 8.29753 Si 0 **** 0
48 Si 6.21577 6.03039 8.29753 Si 0 **** 0
49 O 7.88114 4.49481 2.44753 O.3 0 **** 0
50 O 9.51076 6.54225 2.29903 O.3 0 **** 0
51 O 9.51076 2.44737 2.29903 O.3 0 **** 0
52 O 7.7879 0.00481436 4.57903 O.3 0 **** 0
53 O 8.165 6.20999 4.52953 O.3 0 **** 0
54 O 8.18572 2.77963 4.52953 O.3 0 **** 0
55 O 9.04094 0.00481436 8.79253 O.3 0 **** 0
56 O 7.41131 2.05225 8.94103 O.3 0 **** 0
57 O 7.41131 6.93737 8.94103 O.3 0 **** 0
58 O 9.13418 4.49481 6.66103 O.3 0 **** 0
59 O 8.75656 1.71999 6.71053 O.3 0 **** 0
60 O 8.73584 7.26963 6.71053 O.3 0 **** 0
61 O 5.29114 0.00481436 2.44753 O.3 0 **** 0
62 O 6.92076 2.05225 2.29903 O.3 0 **** 0
63 O 6.92076 6.93737 2.29903 O.3 0 **** 0
64 O 10.3779 4.49481 4.57903 O.3 0 **** 0
65 O 5.575 1.71999 4.52953 O.3 0 **** 0
66 O 5.59572 7.26963 4.52953 O.3 0 **** 0
67 O 6.45094 4.49481 8.79253 O.3 0 **** 0
68 O 10.0013 6.54225 8.94103 O.3 0 **** 0
69 O 10.0013 2.44737 8.94103 O.3 0 **** 0
70 O 6.54418 0.00481436 6.66103 O.3 0 **** 0
71 O 6.16656 6.20999 6.71053 O.3 0 **** 0
72 O 6.14584 2.77963 6.71053 O.3 0 **** 0
73 Al 4.57578 11.9752 5.62003 Al 0 **** 0
74 Al 4.57578 14.9745 5.62003 Al 0 **** 0
75 Al 1.98578 16.4652 5.62003 Al 0 **** 0
76 Al 1.98578 10.4845 5.62003 Al 0 **** 0
77 Si 2.93631 11.9392 2.94403 Si 0 **** 0
78 Si 2.93631 15.0104 2.94403 Si 0 **** 0
79 Si 3.62577 16.4292 8.29753 Si 0 **** 0
80 Si 3.62577 10.5204 8.29753 Si 0 **** 0
81 Si 0.346307 16.4292 2.94403 Si 0 **** 0
82 Si 0.346307 10.5204 2.94403 Si 0 **** 0
83 Si 1.03577 11.9392 8.29753 Si 0 **** 0
84 Si 1.03577 15.0104 8.29753 Si 0 **** 0
85 O 2.70114 13.4748 2.44753 O.3 0 **** 0
86 O 4.33076 15.5223 2.29903 O.3 0 **** 0
87 O 4.33076 11.4274 2.29903 O.3 0 **** 0
88 O 2.6079 8.98481 4.57903 O.3 0 **** 0
89 O 2.985 15.19 4.52953 O.3 0 **** 0
90 O 3.00572 11.7596 4.52953 O.3 0 **** 0
91 O 3.86094 8.98481 8.79253 O.3 0 **** 0
92 O 2.23131 11.0323 8.94103 O.3 0 **** 0
93 O 2.23131 15.9174 8.94103 O.3 0 **** 0
94 O 3.95418 13.4748 6.66103 O.3 0 **** 0
95 O 3.57656 10.7 6.71053 O.3 0 **** 0
96 O 3.55584 16.2496 6.71053 O.3 0 **** 0
97 O 0.111135 8.98481 2.44753 O.3 0 **** 0
98 O 1.74076 11.0323 2.29903 O.3 0 **** 0
99 O 1.74076 15.9174 2.29903 O.3 0 **** 0
100 O 5.1979 13.4748 4.57903 O.3 0 **** 0
101 O 0.394999 10.7 4.52953 O.3 0 **** 0
102 O 0.415719 16.2496 4.52953 O.3 0 **** 0
103 O 1.27094 13.4748 8.79253 O.3 0 **** 0
104 O 4.82131 15.5223 8.94103 O.3 0 **** 0
105 O 4.82131 11.4274 8.94103 O.3 0 **** 0
106 O 1.36418 8.98481 6.66103 O.3 0 **** 0
107 O 0.986555 15.19 6.71053 O.3 0 **** 0
108 O 0.965835 11.7596 6.71053 O.3 0 **** 0
109 Al 9.75578 11.9752 5.62003 Al 0 **** 0
110 Al 9.75578 14.9745 5.62003 Al 0 **** 0
111 Al 7.16578 16.4652 5.62003 Al 0 **** 0
112 Al 7.16578 10.4845 5.62003 Mg 0 **** 0
113 Si 8.11631 11.9392 2.94403 Si 0 **** 0
114 Si 8.11631 15.0104 2.94403 Si 0 **** 0
115 Si 8.80577 16.4292 8.29753 Si 0 **** 0
116 Si 8.80577 10.5204 8.29753 Si 0 **** 0
117 Si 5.52631 16.4292 2.94403 Si 0 **** 0
118 Si 5.52631 10.5204 2.94403 Si 0 **** 0
119 Si 6.21577 11.9392 8.29753 Si 0 **** 0
120 Si 6.21577 15.0104 8.29753 Al 0 **** 0
121 O 7.88114 13.4748 2.44753 O.3 0 **** 0
122 O 9.51076 15.5223 2.29903 O.3 0 **** 0
123 O 9.51076 11.4274 2.29903 O.3 0 **** 0
124 O 7.7879 8.98481 4.57903 O.3 0 **** 0
125 O 8.165 15.19 4.52953 O.3 0 **** 0
126 O 8.18572 11.7596 4.52953 O.3 0 **** 0
127 O 9.04094 8.98481 8.79253 O.3 0 **** 0
128 O 7.41131 11.0323 8.94103 O.3 0 **** 0
129 O 7.41131 15.9174 8.94103 O.3 0 **** 0
130 O 9.13418 13.4748 6.66103 O.3 0 **** 0
131 O 8.75656 10.7 6.71053 O.3 0 **** 0
132 O 8.73584 16.2496 6.71053 O.3 0 **** 0
133 O 5.29114 8.98481 2.44753 O.3 0 **** 0
134 O 6.92076 11.0323 2.29903 O.3 0 **** 0
135 O 6.92076 15.9174 2.29903 O.3 0 **** 0
136 O 10.3779 13.4748 4.57903 O.3 0 **** 0
137 O 5.575 10.7 4.52953 O.3 0 **** 0
138 O 5.59572 16.2496 4.52953 O.3 0 **** 0
139 O 6.45094 13.4748 8.79253 O.3 0 **** 0
140 O 10.0013 15.5223 8.94103 O.3 0 **** 0
141 O 10.0013 11.4274 8.94103 O.3 0 **** 0
142 O 6.54418 8.98481 6.66103 O.3 0 **** 0
143 O 6.16656 15.19 6.71053 O.3 0 **** 0
144 O 6.14584 11.7596 6.71053 O.3 0 **** 0
145 H 3.63313 0.00714563 5.00619 H 0 **** 0
146 H 2.85287 4.48 6.79902 H 0 **** 0
147 H 6.21634 4.49341 5.02217 H 0 **** 0
148 H 0.26379 -0.0109816 6.80608 H 0 **** 0
149 H 8.88676 0.00327382 4.41634 H 0 **** 0
150 H 8.03135 4.48044 6.7712 H 0 **** 0
151 H 11.4789 4.49253 4.43196 H 0 **** 0
152 H 5.44197 -0.0093886 6.77592 H 0 **** 0
153 H 3.62844 8.98834 5.0173 H 0 **** 0
154 H 2.85274 13.4585 6.79783 H 0 **** 0
155 H 6.21635 13.4802 5.02212 H 0 **** 0
156 H 0.263109 8.96723 6.80061 H 0 **** 0
157 H 8.88698 8.98188 4.41792 H 0 **** 0
158 H 8.03136 13.4649 6.77173 H 0 **** 0
159 H 11.4784 13.4732 4.42829 H 0 **** 0
160 H 5.44185 8.97108 6.7751 H 0 **** 0
161 Na 1.07772 1.80081 12.349 Na 0 **** 0
162 Na 4.18572 7.18881 12.349 Na 0 **** 0
163 Na 7.29372 12.5768 12.349 Na 0 **** 0
@<TRIPOS>BOND
@<TRIPOS>CRYSIN
10.36 17.96 25 90 90 90 1 1
