@<TRIPOS>MOLECULE
Molecule 1  0.000000
10 9
SMALL
USER_CHARGES


@<TRIPOS>ATOM
1 C -12.3875 0.683 -0.059 C 0.0 **** 0.0
2 C -11.1863 1.6392 0.084 C 0.0 **** 0.0
3 C -9.8978 0.9359 -0.2739 C 0.0 **** 0.0
4 O -9.0711 1.5144 -0.989 O 0.0 **** 0.0
5 N -9.6157 -0.3589 0.1944 N 0.0 **** 0.0
6 H -12.2502 -0.1779 0.6111 H 0.0 **** 0.0
7 H -12.4552 0.3317 -1.0979 H 0.0 **** 0.0
8 H -11.1389 1.9339 1.1419 H 0.0 **** 0.0
9 H -8.7584 -0.7959 -0.0549 H 0.0 **** 0.0
10 H -10.2623 -0.8408 0.7746 H 0.0 **** 0.0
@<TRIPOS>BOND
1 1 2 1
2 1 6 1
3 1 7 1
4 2 3 1
5 2 8 1
6 3 5 1
7 3 4 2
8 5 9 1
9 10 5 1
@<TRIPOS>CRYSIN
25 25 25 90 90 90 1 1
