# Mol2 file generated by Materials Studio
@<TRIPOS>MOLECULE
"Molecule 1"
57120 64480 0 0 0 
SMALL
USER_CHARGES


@<TRIPOS>ATOM
1 C 31.214 80.8222 79.5049 C.2 0 **** 0
2 C 30.5727 79.6304 79.2054 C.2 0 **** 0
3 C 29.6876 79.5686 78.1409 C.2 0 **** 0
4 C 29.4686 80.6933 77.3847 C.2 0 **** 0
5 C 30.1499 81.8762 77.6453 C.2 0 **** 0
6 C 31.0327 81.9353 78.7036 C.2 0 **** 0
7 C 28.489 80.6634 76.2288 C.3 0 **** -0.106
8 C 27.6329 79.4203 76.0279 C.2 0 **** 0
9 C 27.8441 78.2969 76.7776 C.2 0 **** 0
10 C 28.9624 78.2652 77.817 C.3 0 **** -0.106
11 C 27.0244 77.1793 76.5904 C.2 0 **** 0
12 C 25.9571 77.2134 75.7148 C.2 0 **** 0
13 C 25.8061 78.3158 74.8815 C.2 0 **** 0
14 C 26.6296 79.4363 75.0437 C.2 0 **** 0
15 C 26.4418 80.5587 74.2516 C.2 0 **** -0.1268
16 C 25.3919 80.7239 73.372 C.2 0 **** 0
17 C 24.4794 79.6105 73.3403 C.2 0 **** 0
18 C 24.8234 78.3766 73.898 C.2 0 **** 0.042
19 C 23.2114 79.6898 72.4666 C.3 0 **** 0
20 C 22.9896 80.9456 71.6197 C.3 0 **** 0
21 C 24.1346 81.9762 71.5529 C.2 0 **** 0
22 C 25.2638 81.8695 72.4295 C.2 0 **** 0
23 C 21.5077 81.3308 71.4239 C.3 0 **** -0.106
24 C 20.7238 81.2792 72.739 C.3 0 **** -0.053
25 C 20.7283 79.8479 73.3573 C.3 0 **** -0.053
26 C 21.9023 78.964 72.8601 C.3 0 **** -0.106
27 C 26.2897 82.8154 72.2328 C.2 0 **** 0.042
28 C 26.1775 83.792 71.2664 C.2 0 **** 0.052
29 C 25.0809 83.8456 70.4191 C.2 0 **** 0.052
30 C 24.0955 82.9002 70.5243 C.2 0 **** 0.042
31 C 24.9368 84.8954 69.3485 C.2 0 **** 0.367
32 C 26.043 85.8922 69.2429 C.2 0 **** 0
33 C 27.1117 85.8376 70.0467 C.2 0 **** 0
34 C 27.2737 84.8143 71.1071 C.2 0 **** 0.367
35 C 28.2221 86.858 69.9407 C.3 0 **** -0.106
36 C 27.6109 88.2333 69.573 C.3 0 **** -0.106
37 C 26.7233 88.1241 68.333 C.2 0 **** 0
38 C 25.9307 86.9647 68.1739 C.2 0 **** 0.2405
39 N 25.1022 86.8043 67.1204 N.2 0 **** -0.481
40 C 24.9721 87.8155 66.2678 C.2 0 **** 0.2405
41 C 25.7584 88.9877 66.356 C.2 0 **** 0
42 C 26.6447 89.1231 67.3949 C.2 0 **** 0
43 C 27.5002 90.3741 67.5521 C.3 0 **** -0.106
44 C 27.5531 91.2236 66.2762 C.3 0 **** -0.106
45 C 26.1579 91.3796 65.6805 C.3 0 **** -0.106
46 C 25.6226 90.0016 65.2473 C.3 0 **** -0.053
47 C 24.1426 90.0887 64.7898 C.3 0 **** -0.106
48 C 23.6262 88.7112 64.4695 C.2 0 **** 0
49 C 24.0322 87.6106 65.2264 C.2 0 **** 0
50 C 23.4998 86.3413 64.9378 C.2 0 **** -0.1268
51 C 22.5633 86.2059 63.9311 C.2 0 **** -0.1268
52 C 22.1242 87.2989 63.2048 C.2 0 **** 0
53 C 22.6483 88.559 63.4917 C.2 0 **** 0
54 C 31.8182 83.1942 78.9686 C.3 0 **** -0.106
55 C 31.0012 84.1917 79.8168 C.3 0 **** -0.159
56 C 32.1138 80.893 80.7114 C.3 0 **** -0.159
57 C 29.8672 83.0654 76.7563 C.3 0 **** -0.159
58 C 30.828 78.3994 80.0402 C.3 0 **** -0.159
59 C 27.3225 75.9367 77.4297 C.3 0 **** -0.159
60 C 25.0118 76.0355 75.7354 C.3 0 **** -0.159
61 O 24.1243 77.2646 73.5225 O.3 0 **** -0.452
62 C 19.4627 79.042 73.0568 C.3 0 **** -0.159
63 C 19.3197 81.8328 72.4685 C.3 0 **** -0.159
64 O 23.0417 82.8246 69.6541 O.3 0 **** -0.452
65 O 27.4158 82.7717 72.9883 O.3 0 **** -0.452
66 O 28.2395 84.7987 71.8004 O.2 0 **** -0.419
67 O 23.9607 84.9416 68.6582 O.2 0 **** -0.419
68 C 22.138 89.7693 62.7277 C.3 0 **** -0.159
69 C 21.0715 87.0763 62.1373 C.3 0 **** -0.159
70 H 27.7946 81.5247 76.365 H 0 **** 0.053
71 H 29.0548 80.8565 75.2846 H 0 **** 0.053
72 H 29.7264 77.5204 77.4873 H 0 **** 0.053
73 H 28.531 77.8737 78.7648 H 0 **** 0.053
74 H 27.1585 81.3338 74.404 H 0 **** 0.1268
75 H 21.4077 82.3316 70.9997 H 0 **** 0.053
76 H 21.0988 80.6137 70.7086 H 0 **** 0.053
77 H 21.2201 81.9604 73.4534 H 0 **** 0.053
78 H 20.8183 79.9628 74.4456 H 0 **** 0.053
79 H 21.6016 78.4592 71.9376 H 0 **** 0.053
80 H 22.0869 78.1891 73.6138 H 0 **** 0.053
81 H 28.8001 86.9579 70.8775 H 0 **** 0.053
82 H 28.9318 86.5268 69.163 H 0 **** 0.053
83 H 28.448 88.9423 69.4524 H 0 **** 0.053
84 H 27.024 88.605 70.44 H 0 **** 0.053
85 H 27.0951 90.993 68.3757 H 0 **** 0.053
86 H 28.5394 90.1216 67.8298 H 0 **** 0.053
87 H 28.2092 90.7367 65.5298 H 0 **** 0.053
88 H 28.0022 92.2118 66.4877 H 0 **** 0.053
89 H 26.166 92.0685 64.8143 H 0 **** 0.053
90 H 25.4789 91.821 66.4325 H 0 **** 0.053
91 H 26.2329 89.6644 64.374 H 0 **** 0.053
92 H 23.5367 90.5442 65.6059 H 0 **** 0.053
93 H 24.0835 90.7889 63.9283 H 0 **** 0.053
94 H 23.8131 85.4567 65.5064 H 0 **** 0.1268
95 H 22.1474 85.2088 63.713 H 0 **** 0.1268
96 H 32.1388 83.6911 78.0323 H 0 **** 0.053
97 H 32.7731 82.989 79.4844 H 0 **** 0.053
98 H 30.7096 83.7457 80.782 H 0 **** 0.053
99 H 30.0808 84.5031 79.2963 H 0 **** 0.053
100 H 31.5805 85.1102 80.0393 H 0 **** 0.053
101 H 31.8033 80.2045 81.5215 H 0 **** 0.053
102 H 32.1154 81.8918 81.188 H 0 **** 0.053
103 H 33.1691 80.6478 80.4597 H 0 **** 0.053
104 H 28.7999 83.3762 76.8167 H 0 **** 0.053
105 H 30.0806 82.8432 75.6885 H 0 **** 0.053
106 H 30.4437 83.9718 76.9934 H 0 **** 0.053
107 H 30.6455 77.4514 79.4982 H 0 **** 0.053
108 H 30.1843 78.3784 80.9476 H 0 **** 0.053
109 H 31.8792 78.3296 80.3793 H 0 **** 0.053
110 H 27.0747 74.9992 76.9017 H 0 **** 0.053
111 H 26.7615 75.941 78.3924 H 0 **** 0.053
112 H 28.4006 75.8261 77.6868 H 0 **** 0.053
113 H 23.9469 76.3527 75.6761 H 0 **** 0.053
114 H 25.036 75.4289 76.6814 H 0 **** 0.053
115 H 25.1893 75.311 74.8986 H 0 **** 0.053
116 H 23.686 77.4341 72.6848 H 0 **** 0.41
117 H 18.571 79.5057 73.4996 H 0 **** 0.053
118 H 19.5451 78.0212 73.4762 H 0 **** 0.053
119 H 19.3019 78.9362 71.9657 H 0 **** 0.053
120 H 19.3749 82.8757 72.1032 H 0 **** 0.053
121 H 18.7066 81.8349 73.3821 H 0 **** 0.053
122 H 18.7934 81.2452 71.6901 H 0 **** 0.053
123 H 23.0704 83.6012 69.0753 H 0 **** 0.41
124 H 28.0007 83.5076 72.7564 H 0 **** 0.41
125 H 21.8457 90.5871 63.4126 H 0 **** 0.053
126 H 21.2395 89.5612 62.116 H 0 **** 0.053
127 H 22.9043 90.1687 62.0315 H 0 **** 0.053
128 H 20.1332 87.6141 62.3657 H 0 **** 0.053
129 H 20.8028 86.0103 62.0341 H 0 **** 0.053
130 H 21.4166 87.4107 61.1433 H 0 **** 0.053
131 C 33.5467 72.662 90.3566 C.2 0 **** 0
132 C 34.8387 72.1601 90.3346 C.2 0 **** 0
133 C 35.9164 73.0137 90.5082 C.2 0 **** 0
134 C 35.686 74.3512 90.7153 C.2 0 **** 0
135 C 34.392 74.852 90.7938 C.2 0 **** 0
136 C 33.3202 74.0004 90.6235 C.2 0 **** 0
137 C 36.8445 75.3132 90.8856 C.3 0 **** -0.106
138 C 38.2599 74.801 90.6561 C.2 0 **** 0
139 C 38.4974 73.4709 90.4483 C.2 0 **** 0
140 C 37.3426 72.4717 90.4658 C.3 0 **** -0.106
141 C 39.8044 73.0326 90.2132 C.2 0 **** 0
142 C 40.8514 73.9272 90.1122 C.2 0 **** 0
143 C 40.6271 75.2632 90.4237 C.2 0 **** 0
144 C 39.3271 75.7155 90.6794 C.2 0 **** 0
145 C 39.0943 77.0586 90.9337 C.2 0 **** -0.1268
146 C 40.0495 78.0481 90.8258 C.2 0 **** 0
147 C 41.3424 77.5655 90.415 C.2 0 **** 0
148 C 41.6528 76.2036 90.452 C.2 0 **** 0.042
149 C 42.4861 78.5695 90.1684 C.3 0 **** 0
150 C 42.2164 80.0555 90.4178 C.3 0 **** 0
151 C 40.8732 80.4401 91.0698 C.2 0 **** 0
152 C 39.8324 79.4665 91.224 C.2 0 **** 0
153 C 42.9977 81.0107 89.4906 C.3 0 **** -0.106
154 C 42.9326 80.5677 88.0256 C.3 0 **** -0.053
155 C 43.5537 79.1524 87.8225 C.3 0 **** -0.053
156 C 43.5937 78.3039 89.1206 C.3 0 **** -0.106
157 C 38.6766 79.9011 91.9032 C.2 0 **** 0.042
158 C 38.5668 81.1981 92.3573 C.2 0 **** 0.052
159 C 39.6074 82.1032 92.2133 C.2 0 **** 0.052
160 C 40.7789 81.7024 91.6277 C.2 0 **** 0.042
161 C 39.519 83.5227 92.7095 C.2 0 **** 0.367
162 C 38.2393 83.9168 93.3693 C.2 0 **** 0
163 C 37.2365 83.0448 93.5256 C.2 0 **** 0
164 C 37.3008 81.6436 93.044 C.2 0 **** 0.367
165 C 35.9392 83.4552 94.1843 C.3 0 **** -0.106
166 C 35.6235 84.924 93.8056 C.3 0 **** -0.106
167 C 36.8119 85.8357 94.1117 C.2 0 **** 0
168 C 38.1157 85.3406 93.8819 C.2 0 **** 0.2405
169 N 39.2151 86.0921 94.1024 N.2 0 **** -0.481
170 C 39.0437 87.3612 94.4584 C.2 0 **** 0.2405
171 C 37.7678 87.9062 94.7325 C.2 0 **** 0
172 C 36.6543 87.1217 94.5651 C.2 0 **** 0
173 C 35.2538 87.6635 94.8237 C.3 0 **** -0.106
174 C 35.2595 88.9662 95.6331 C.3 0 **** -0.106
175 C 36.3108 89.9279 95.0894 C.3 0 **** -0.106
176 C 37.7135 89.3159 95.2666 C.3 0 **** -0.053
177 C 38.7997 90.1836 94.5777 C.3 0 **** -0.106
178 C 40.1391 89.5048 94.6873 C.2 0 **** 0
179 C 40.236 88.1145 94.6029 C.2 0 **** 0
180 C 41.503 87.507 94.6604 C.2 0 **** -0.1268
181 C 42.6335 88.2934 94.7703 C.2 0 **** -0.1268
182 C 42.5487 89.674 94.8116 C.2 0 **** 0
183 C 41.2934 90.2787 94.7513 C.2 0 **** 0
184 C 31.9105 74.5171 90.757 C.3 0 **** -0.106
185 C 31.4148 75.1301 89.4302 C.3 0 **** -0.159
186 C 32.39 71.7341 90.0898 C.3 0 **** -0.159
187 C 34.221 76.3329 91.0425 C.3 0 **** -0.159
188 C 35.0778 70.6865 90.1137 C.3 0 **** -0.159
189 C 40.022 71.5317 90.0202 C.3 0 **** -0.159
190 C 42.1819 73.3794 89.6531 C.3 0 **** -0.159
191 O 42.9655 75.8243 90.4287 O.3 0 **** -0.452
192 C 44.9966 79.1791 87.3144 C.3 0 **** -0.159
193 C 43.5924 81.6609 87.1768 C.3 0 **** -0.159
194 O 41.8848 82.5054 91.5515 O.3 0 **** -0.452
195 O 37.6537 79.0402 92.1331 O.3 0 **** -0.452
196 O 36.3882 80.8991 93.2009 O.2 0 **** -0.419
197 O 40.4179 84.2931 92.5356 O.2 0 **** -0.419
198 C 41.1964 91.7952 94.7514 C.3 0 **** -0.159
199 C 43.8349 90.4707 94.9001 C.3 0 **** -0.159
200 H 36.6783 76.1557 90.1749 H 0 **** 0.053
201 H 36.7907 75.7482 91.9136 H 0 **** 0.053
202 H 37.4787 71.7946 91.3433 H 0 **** 0.053
203 H 37.4351 71.8335 89.5595 H 0 **** 0.053
204 H 38.0839 77.2943 91.181 H 0 **** 0.1268
205 H 42.6209 82.0327 89.5611 H 0 **** 0.053
206 H 44.0306 81.0017 89.8456 H 0 **** 0.053
207 H 41.8673 80.5165 87.7368 H 0 **** 0.053
208 H 42.9337 78.6261 87.0847 H 0 **** 0.053
209 H 44.5176 78.5246 89.6626 H 0 **** 0.053
210 H 43.626 77.2458 88.8341 H 0 **** 0.053
211 H 35.089 82.8141 93.8879 H 0 **** 0.053
212 H 36.0504 83.3498 95.2774 H 0 **** 0.053
213 H 34.7018 85.2093 94.3413 H 0 **** 0.053
214 H 35.369 84.9656 92.725 H 0 **** 0.053
215 H 34.7481 87.8469 93.8562 H 0 **** 0.053
216 H 34.6316 86.9321 95.3704 H 0 **** 0.053
217 H 35.4885 88.7466 96.6932 H 0 **** 0.053
218 H 34.2571 89.4332 95.6215 H 0 **** 0.053
219 H 36.2614 90.9079 95.6011 H 0 **** 0.053
220 H 36.1226 90.1183 94.0172 H 0 **** 0.053
221 H 37.9345 89.2948 96.3619 H 0 **** 0.053
222 H 38.5274 90.3229 93.5067 H 0 **** 0.053
223 H 38.7833 91.1951 95.0387 H 0 **** 0.053
224 H 41.6071 86.4158 94.6122 H 0 **** 0.1268
225 H 43.6232 87.8103 94.8115 H 0 **** 0.1268
226 H 31.8168 75.271 91.5628 H 0 **** 0.053
227 H 31.2045 73.7269 91.0684 H 0 **** 0.053
228 H 31.4455 74.3885 88.6149 H 0 **** 0.053
229 H 32.0344 75.9903 89.1283 H 0 **** 0.053
230 H 30.3694 75.4893 89.5106 H 0 **** 0.053
231 H 32.6553 70.8984 89.4132 H 0 **** 0.053
232 H 31.5442 72.2369 89.5836 H 0 **** 0.053
233 H 31.9917 71.2842 91.0258 H 0 **** 0.053
234 H 34.6718 76.9393 90.225 H 0 **** 0.053
235 H 34.7075 76.6519 91.9895 H 0 **** 0.053
236 H 33.1783 76.6762 91.1129 H 0 **** 0.053
237 H 36.0354 70.3254 90.536 H 0 **** 0.053
238 H 35.0887 70.4306 89.031 H 0 **** 0.053
239 H 34.3051 70.0566 90.5943 H 0 **** 0.053
240 H 41.0079 71.1959 90.3869 H 0 **** 0.053
241 H 39.9401 71.2342 88.9496 H 0 **** 0.053
242 H 39.2951 70.9042 90.5844 H 0 **** 0.053
243 H 42.6813 74.053 88.9218 H 0 **** 0.053
244 H 42.1231 72.407 89.0925 H 0 **** 0.053
245 H 42.9036 73.2087 90.494 H 0 **** 0.053
246 H 43.5145 76.5568 90.72 H 0 **** 0.41
247 H 45.0677 79.6313 86.3162 H 0 **** 0.053
248 H 45.399 78.1511 87.2391 H 0 **** 0.053
249 H 45.6564 79.7402 88.0052 H 0 **** 0.053
250 H 43.0644 82.6247 87.303 H 0 **** 0.053
251 H 43.5666 81.4075 86.1064 H 0 **** 0.053
252 H 44.6463 81.828 87.4761 H 0 **** 0.053
253 H 41.6371 83.3916 91.8553 H 0 **** 0.41
254 H 36.9225 79.4996 92.5721 H 0 **** 0.41
255 H 40.5563 92.1605 93.9266 H 0 **** 0.053
256 H 42.1708 92.302 94.6155 H 0 **** 0.053
257 H 40.7742 92.1793 95.7031 H 0 **** 0.053
258 H 43.9848 91.1105 94.0113 H 0 **** 0.053
259 H 44.7234 89.8188 94.9688 H 0 **** 0.053
260 H 43.8538 91.1226 95.7909 H 0 **** 0.053
261 C 42.3718 23.2203 56.3201 C.2 0 **** 0
262 C 42.2268 23.9306 57.5016 C.2 0 **** 0
263 C 41.3692 23.4675 58.4867 C.2 0 **** 0
264 C 40.6831 22.2959 58.2825 C.2 0 **** 0
265 C 40.8666 21.5503 57.124 C.2 0 **** 0
266 C 41.7222 22.0114 56.145 C.2 0 **** 0
267 C 39.721 21.7758 59.3318 C.3 0 **** -0.106
268 C 39.4035 22.6556 60.5333 C.2 0 **** 0
269 C 40.0815 23.8241 60.743 C.2 0 **** 0
270 C 41.1883 24.2541 59.7824 C.3 0 **** -0.106
271 C 39.7502 24.6256 61.8401 C.2 0 **** 0
272 C 38.7004 24.297 62.675 C.2 0 **** 0
273 C 38.0802 23.0623 62.5223 C.2 0 **** 0
274 C 38.4125 22.2395 61.4393 C.2 0 **** 0
275 C 37.7542 21.0333 61.2537 C.2 0 **** -0.1268
276 C 36.6694 20.6164 61.997 C.2 0 **** 0
277 C 36.2608 21.5572 63.0076 C.2 0 **** 0
278 C 37.0907 22.6133 63.392 C.2 0 **** 0.042
279 C 35.0087 21.2645 63.8582 C.3 0 **** 0
280 C 34.2636 19.9475 63.6266 C.3 0 **** 0
281 C 34.9115 18.9141 62.6833 C.2 0 **** 0
282 C 36.0467 19.2686 61.8829 C.2 0 **** 0
283 C 32.7394 20.0272 63.8573 C.3 0 **** -0.106
284 C 32.1218 21.2578 63.1859 C.3 0 **** -0.053
285 C 32.721 22.583 63.7477 C.3 0 **** -0.053
286 C 34.1124 22.3998 64.4091 C.3 0 **** -0.106
287 C 36.6101 18.2288 61.1161 C.2 0 **** 0.042
288 C 36.0661 16.9621 61.1308 C.2 0 **** 0.052
289 C 34.9838 16.6517 61.9401 C.2 0 **** 0.052
290 C 34.4518 17.6117 62.7595 C.2 0 **** 0.042
291 C 34.3763 15.2742 61.984 C.2 0 **** 0.367
292 C 34.9994 14.2451 61.1006 C.2 0 **** 0
293 C 36.0535 14.5331 60.3284 C.2 0 **** 0
294 C 36.6671 15.8819 60.2677 C.2 0 **** 0.367
295 C 36.6715 13.4883 59.4276 C.3 0 **** -0.106
296 C 35.5519 12.5673 58.881 C.3 0 **** -0.106
297 C 34.6999 12.0063 60.0197 C.2 0 **** 0
298 C 34.412 12.8453 61.1202 C.2 0 **** 0.2405
299 N 33.6447 12.4339 62.1519 N.2 0 **** -0.481
300 C 33.0793 11.2337 62.0702 C.2 0 **** 0.2405
301 C 33.3524 10.337 61.0111 C.2 0 **** 0
302 C 34.1802 10.7362 59.992 C.2 0 **** 0
303 C 34.4906 9.82017 58.8148 C.3 0 **** -0.106
304 C 34.1284 8.35527 59.0888 C.3 0 **** -0.106
305 C 32.7475 8.2572 59.7285 C.3 0 **** -0.106
306 C 32.7634 8.95133 61.1037 C.3 0 **** -0.053
307 C 31.3401 9.0223 61.7173 C.3 0 **** -0.106
308 C 31.3802 9.79244 63.0102 C.2 0 **** 0
309 C 32.2289 10.8918 63.1519 C.2 0 **** 0
310 C 32.2143 11.6237 64.3528 C.2 0 **** -0.1268
311 C 31.3423 11.2635 65.362 C.2 0 **** -0.1268
312 C 30.468 10.2013 65.2127 C.2 0 **** 0
313 C 30.4785 9.47628 64.0214 C.2 0 **** 0
314 C 41.9724 21.1901 54.9058 C.3 0 **** -0.106
315 C 40.8876 21.4482 53.8385 C.3 0 **** -0.159
316 C 43.2486 23.7762 55.2289 C.3 0 **** -0.159
317 C 40.0889 20.2621 56.9819 C.3 0 **** -0.159
318 C 42.9937 25.2128 57.7167 C.3 0 **** -0.159
319 C 40.5607 25.9049 62.0502 C.3 0 **** -0.159
320 C 38.2916 25.3254 63.7029 C.3 0 **** -0.159
321 O 36.8548 23.2396 64.5833 O.3 0 **** -0.452
322 C 31.8522 23.2491 64.8165 C.3 0 **** -0.159
323 C 30.5991 21.1559 63.3321 C.3 0 **** -0.159
324 O 33.4572 17.3501 63.663 O.3 0 **** -0.452
325 O 37.7111 18.4574 60.3574 O.3 0 **** -0.452
326 O 37.6022 16.0996 59.5681 O.2 0 **** -0.419
327 O 33.4167 15.0457 62.6618 O.2 0 **** -0.419
328 C 29.4908 8.33685 63.8345 C.3 0 **** -0.159
329 C 29.5192 9.88601 66.3518 C.3 0 **** -0.159
330 H 38.7571 21.5615 58.8149 H 0 **** 0.053
331 H 40.1067 20.7958 59.7057 H 0 **** 0.053
332 H 42.159 24.2343 60.3342 H 0 **** 0.053
333 H 41.0047 25.3169 59.5101 H 0 **** 0.053
334 H 38.122 20.4484 60.441 H 0 **** 0.1268
335 H 32.232 19.1362 63.4831 H 0 **** 0.053
336 H 32.5978 20.0726 64.9395 H 0 **** 0.053
337 H 32.3595 21.2073 62.108 H 0 **** 0.053
338 H 32.8288 23.2768 62.9036 H 0 **** 0.053
339 H 33.9752 22.1312 65.4605 H 0 **** 0.053
340 H 34.6312 23.3657 64.3827 H 0 **** 0.053
341 H 37.2239 13.93 58.5782 H 0 **** 0.053
342 H 37.4034 12.906 60.0139 H 0 **** 0.053
343 H 36.0388 11.7868 58.2714 H 0 **** 0.053
344 H 34.9233 13.1519 58.1758 H 0 **** 0.053
345 H 33.9304 10.1654 57.9246 H 0 **** 0.053
346 H 35.5617 9.85562 58.5458 H 0 **** 0.053
347 H 34.8735 7.90762 59.7736 H 0 **** 0.053
348 H 34.1708 7.76504 58.1544 H 0 **** 0.053
349 H 32.4327 7.20248 59.8439 H 0 **** 0.053
350 H 31.9995 8.74359 59.0765 H 0 **** 0.053
351 H 33.4002 8.3337 61.7833 H 0 **** 0.053
352 H 30.6578 9.52414 60.9939 H 0 **** 0.053
353 H 30.9593 7.98479 61.838 H 0 **** 0.053
354 H 32.8823 12.4821 64.4968 H 0 **** 0.1268
355 H 31.3332 11.8435 66.299 H 0 **** 0.1268
356 H 42.0154 20.1053 55.1249 H 0 **** 0.053
357 H 42.9627 21.3963 54.462 H 0 **** 0.053
358 H 40.8537 22.5138 53.5571 H 0 **** 0.053
359 H 39.8871 21.1636 54.2035 H 0 **** 0.053
360 H 41.0772 20.8688 52.9127 H 0 **** 0.053
361 H 43.2845 24.8833 55.2247 H 0 **** 0.053
362 H 42.8938 23.5111 54.2147 H 0 **** 0.053
363 H 44.2976 23.4168 55.3154 H 0 **** 0.053
364 H 38.9909 20.4453 56.9867 H 0 **** 0.053
365 H 40.3041 19.5553 57.812 H 0 **** 0.053
366 H 40.2822 19.7016 56.0552 H 0 **** 0.053
367 H 43.1604 25.4556 58.7841 H 0 **** 0.053
368 H 42.4681 26.0849 57.2684 H 0 **** 0.053
369 H 44.0085 25.1771 57.2761 H 0 **** 0.053
370 H 40.664 26.1711 63.1169 H 0 **** 0.053
371 H 40.1051 26.7767 61.5271 H 0 **** 0.053
372 H 41.6112 25.8266 61.6881 H 0 **** 0.053
373 H 37.1859 25.4176 63.7856 H 0 **** 0.053
374 H 38.6102 26.3778 63.4693 H 0 **** 0.053
375 H 38.6837 25.105 64.7299 H 0 **** 0.053
376 H 36.3467 22.6603 65.1571 H 0 **** 0.41
377 H 30.8819 23.5648 64.4118 H 0 **** 0.053
378 H 32.3518 24.1533 65.213 H 0 **** 0.053
379 H 31.6755 22.5697 65.6735 H 0 **** 0.053
380 H 30.2219 20.2341 62.8509 H 0 **** 0.053
381 H 30.0936 22.0089 62.8556 H 0 **** 0.053
382 H 30.295 21.1128 64.3969 H 0 **** 0.053
383 H 33.1466 16.444 63.5175 H 0 **** 0.41
384 H 37.9488 17.658 59.8641 H 0 **** 0.41
385 H 28.9477 8.4245 62.8749 H 0 **** 0.053
386 H 28.7068 8.29674 64.6147 H 0 **** 0.053
387 H 29.9959 7.34882 63.8481 H 0 **** 0.053
388 H 28.4622 10.0127 66.0545 H 0 **** 0.053
389 H 29.6796 10.5467 67.2219 H 0 **** 0.053
390 H 29.6435 8.85128 66.7164 H 0 **** 0.053
391 C 38.2868 5.60198 38.8272 C.2 0 **** 0
392 C 37.5276 5.19105 39.9118 C.2 0 **** 0
393 C 36.3706 4.45608 39.7085 C.2 0 **** 0
394 C 35.9988 4.13109 38.4275 C.2 0 **** 0
395 C 36.7846 4.49208 37.3396 C.2 0 **** 0
396 C 37.9375 5.22155 37.5439 C.2 0 **** 0
397 C 34.7268 3.34804 38.1719 C.3 0 **** -0.106
398 C 33.7882 3.07647 39.3398 C.2 0 **** 0
399 C 34.1507 3.39781 40.6183 C.2 0 **** 0
400 C 35.5188 4.01669 40.8966 C.3 0 **** -0.106
401 C 33.2577 3.16118 41.6684 C.2 0 **** 0
402 C 31.9862 2.67812 41.4304 C.2 0 **** 0
403 C 31.6555 2.25734 40.1473 C.2 0 **** 0
404 C 32.5455 2.47024 39.0875 C.2 0 **** 0
405 C 32.1934 2.10232 37.7975 C.2 0 **** -0.1268
406 C 30.9441 1.64565 37.4321 C.2 0 **** 0
407 C 30.0072 1.58046 38.5235 C.2 0 **** 0
408 C 30.4347 1.65782 39.8516 C.2 0 **** 0.042
409 C 28.5469 1.1707 38.2486 C.3 0 **** 0
410 C 28.1527 0.795075 36.8176 C.3 0 **** 0
411 C 29.279 0.68259 35.7709 C.2 0 **** 0
412 C 30.6064 1.12942 36.0767 C.2 0 **** 0
413 C 26.6998 1.15295 36.4418 C.3 0 **** -0.106
414 C 26.3324 2.57378 36.8776 C.3 0 **** -0.053
415 C 26.4385 2.753 38.4219 C.3 0 **** -0.053
416 C 27.3727 1.71546 39.0973 C.3 0 **** -0.106
417 C 31.5776 0.905725 35.0801 C.2 0 **** 0.042
418 C 31.2393 0.318076 33.8795 C.2 0 **** 0.052
419 C 29.9489 -0.125541 33.632 C.2 0 **** 0.052
420 C 28.9906 0.00055585 34.6025 C.2 0 **** 0.042
421 C 29.5545 -0.78199 32.3349 C.2 0 **** 0.367
422 C 30.6309 -0.930999 31.3119 C.2 0 **** 0
423 C 31.882 -0.519289 31.5492 C.2 0 **** 0
424 C 32.2926 0.13004 32.8175 C.2 0 **** 0.367
425 C 32.9641 -0.663578 30.5039 C.3 0 **** -0.106
426 C 32.3421 -0.450231 29.1012 C.3 0 **** -0.106
427 C 31.1299 -1.35939 28.896 C.2 0 **** 0
428 C 30.2682 -1.58888 29.9927 C.2 0 **** 0.2405
429 N 29.1619 -2.35544 29.8858 N.2 0 **** -0.481
430 C 28.8434 -2.82754 28.6843 C.2 0 **** 0.2405
431 C 29.6785 -2.65589 27.5555 C.2 0 **** 0
432 C 30.8333 -1.92548 27.6814 C.2 0 **** 0
433 C 31.7587 -1.69047 26.4939 C.3 0 **** -0.106
434 C 31.4825 -2.64495 25.3258 C.3 0 **** -0.106
435 C 29.9842 -2.73772 25.0559 C.3 0 **** -0.106
436 C 29.278 -3.35112 26.2782 C.3 0 **** -0.053
437 C 27.7351 -3.32258 26.1207 C.3 0 **** -0.106
438 C 27.0808 -3.84079 27.3744 C.2 0 **** 0
439 C 27.632 -3.56231 28.6264 C.2 0 **** 0
440 C 26.9749 -4.01443 29.7848 C.2 0 **** -0.1268
441 C 25.7835 -4.70436 29.6703 C.2 0 **** -0.1268
442 C 25.2093 -4.94815 28.4351 C.2 0 **** 0
443 C 25.8564 -4.49564 27.2853 C.2 0 **** 0
444 C 38.8278 5.57687 36.3807 C.3 0 **** -0.106
445 C 38.3414 6.86352 35.6808 C.3 0 **** -0.159
446 C 39.4994 6.46546 39.0602 C.3 0 **** -0.159
447 C 36.317 4.08112 35.9623 C.3 0 **** -0.159
448 C 37.9518 5.54826 41.3154 C.3 0 **** -0.159
449 C 33.7234 3.50605 43.0836 C.3 0 **** -0.159
450 C 31.0307 2.65207 42.6001 C.3 0 **** -0.159
451 O 29.6018 1.21693 40.8412 O.3 0 **** -0.452
452 C 25.1004 2.62773 39.1541 C.3 0 **** -0.159
453 C 24.9429 2.88413 36.3172 C.3 0 **** -0.159
454 O 27.7292 -0.515127 34.4728 O.3 0 **** -0.452
455 O 32.871 1.25414 35.2948 O.3 0 **** -0.452
456 O 33.4141 0.482673 32.9919 O.2 0 **** -0.419
457 O 28.4237 -1.12068 32.1359 O.2 0 **** -0.419
458 C 25.2081 -4.71925 25.9293 C.3 0 **** -0.159
459 C 23.883 -5.68119 28.3908 C.3 0 **** -0.159
460 H 34.1455 3.90881 37.4037 H 0 **** 0.053
461 H 35.0046 2.36962 37.7088 H 0 **** 0.053
462 H 36.117 3.28965 41.4971 H 0 **** 0.053
463 H 35.3609 4.90558 41.5465 H 0 **** 0.053
464 H 32.9607 2.24447 37.0702 H 0 **** 0.1268
465 H 26.5308 1.06449 35.367 H 0 **** 0.053
466 H 26.0652 0.422613 36.949 H 0 **** 0.053
467 H 27.0463 3.26937 36.4023 H 0 **** 0.053
468 H 26.8445 3.75618 38.6069 H 0 **** 0.053
469 H 26.7941 0.81957 39.34 H 0 **** 0.053
470 H 27.7285 2.14293 40.0426 H 0 **** 0.053
471 H 33.7927 0.0541537 30.6453 H 0 **** 0.053
472 H 33.4015 -1.67376 30.5861 H 0 **** 0.053
473 H 33.1429 -0.612502 28.3594 H 0 **** 0.053
474 H 32.0496 0.616719 29.0003 H 0 **** 0.053
475 H 31.6404 -0.648913 26.1383 H 0 **** 0.053
476 H 32.8199 -1.8076 26.7786 H 0 **** 0.053
477 H 31.8677 -3.65373 25.5685 H 0 **** 0.053
478 H 32.0242 -2.31488 24.4198 H 0 **** 0.053
479 H 29.7762 -3.35106 24.1583 H 0 **** 0.053
480 H 29.5763 -1.73046 24.8579 H 0 **** 0.053
481 H 29.5977 -4.41743 26.3311 H 0 **** 0.053
482 H 27.4118 -2.27484 25.9262 H 0 **** 0.053
483 H 27.4659 -3.90747 25.2145 H 0 **** 0.053
484 H 27.3985 -3.82425 30.7782 H 0 **** 0.1268
485 H 25.273 -5.05392 30.5814 H 0 **** 0.1268
486 H 38.8888 4.75944 35.636 H 0 **** 0.053
487 H 39.8796 5.71634 36.6876 H 0 **** 0.053
488 H 38.3195 7.71304 36.3833 H 0 **** 0.053
489 H 37.3266 6.73882 35.2688 H 0 **** 0.053
490 H 39.0055 7.1479 34.8401 H 0 **** 0.053
491 H 39.4027 7.11263 39.9539 H 0 **** 0.053
492 H 39.6886 7.173 38.2306 H 0 **** 0.053
493 H 40.4237 5.86069 39.192 H 0 **** 0.053
494 H 35.3296 4.53173 35.7146 H 0 **** 0.053
495 H 36.2017 2.97916 35.8761 H 0 **** 0.053
496 H 36.982 4.37651 35.1373 H 0 **** 0.053
497 H 37.5737 4.84701 42.0841 H 0 **** 0.053
498 H 37.5977 6.5625 41.6049 H 0 **** 0.053
499 H 39.0514 5.53412 41.4405 H 0 **** 0.053
500 H 33.2871 2.8391 43.848 H 0 **** 0.053
501 H 33.4653 4.55359 43.3615 H 0 **** 0.053
502 H 34.8229 3.39802 43.2247 H 0 **** 0.053
503 H 30.0113 2.99371 42.3139 H 0 **** 0.053
504 H 31.2969 3.34795 43.4418 H 0 **** 0.053
505 H 30.923 1.63584 43.0611 H 0 **** 0.053
506 H 28.9548 0.612312 40.4681 H 0 **** 0.41
507 H 24.3989 3.41926 38.8585 H 0 **** 0.053
508 H 25.2489 2.71183 40.2475 H 0 **** 0.053
509 H 24.6262 1.6451 38.962 H 0 **** 0.053
510 H 24.9421 2.8168 35.2132 H 0 **** 0.053
511 H 24.6246 3.90198 36.5864 H 0 **** 0.053
512 H 24.1868 2.16212 36.6858 H 0 **** 0.053
513 H 27.6251 -0.833793 33.5635 H 0 **** 0.41
514 H 33.3986 1.07887 34.5009 H 0 **** 0.41
515 H 25.1677 -3.7838 25.3405 H 0 **** 0.053
516 H 24.1619 -5.07495 25.9909 H 0 **** 0.053
517 H 25.7601 -5.47259 25.33 H 0 **** 0.053
518 H 23.079 -5.05197 27.967 H 0 **** 0.053
519 H 23.543 -5.9864 29.396 H 0 **** 0.053
520 H 23.9431 -6.60279 27.7859 H 0 **** 0.053
521 C 22.5151 68.9339 50.4793 C.2 0 **** 0
522 C 22.3971 70.2457 50.9113 C.2 0 **** 0
523 C 23.0025 71.2671 50.197 C.2 0 **** 0
524 C 23.7024 70.9631 49.0557 C.2 0 **** 0
525 C 23.7782 69.6574 48.5866 C.2 0 **** 0
526 C 23.1728 68.6423 49.2976 C.2 0 **** 0
527 C 24.3942 72.0549 48.2652 C.3 0 **** -0.106
528 C 24.4404 73.4616 48.847 C.2 0 **** 0
529 C 23.7474 73.7709 49.9844 C.2 0 **** 0
530 C 22.8935 72.7117 50.6772 C.3 0 **** -0.106
531 C 23.8308 75.0642 50.5107 C.2 0 **** 0
532 C 24.6604 76.0143 49.9478 C.2 0 **** 0
533 C 25.2873 75.7246 48.7413 C.2 0 **** 0
534 C 25.1942 74.4453 48.1857 C.2 0 **** 0
535 C 25.8635 74.1446 47.0083 C.2 0 **** -0.1268
536 C 26.7469 74.9969 46.377 C.2 0 **** 0
537 C 26.9326 76.2493 47.0549 C.2 0 **** 0
538 C 26.0629 76.6564 48.0643 C.2 0 **** 0.042
539 C 27.9512 77.2719 46.5128 C.3 0 **** 0
540 C 28.7105 76.928 45.2285 C.3 0 **** 0
541 C 28.2824 75.66 44.462 C.2 0 **** 0
542 C 27.3632 74.7285 45.0484 C.2 0 **** 0
543 C 30.1444 77.4979 45.1641 C.3 0 **** -0.106
544 C 30.913 77.2675 46.4693 C.3 0 **** -0.053
545 C 30.2186 77.9636 47.6785 C.3 0 **** -0.053
546 C 28.7126 78.2467 47.4443 C.3 0 **** -0.106
547 C 26.9762 73.6465 44.2316 C.2 0 **** 0.042
548 C 27.4884 73.4993 42.9603 C.2 0 **** 0.052
549 C 28.3545 74.4378 42.4193 C.2 0 **** 0.052
550 C 28.6966 75.5464 43.1475 C.2 0 **** 0.042
551 C 28.9194 74.3079 41.03 C.2 0 **** 0.367
552 C 28.5007 73.1042 40.2533 C.2 0 **** 0
553 C 27.6532 72.2025 40.7632 C.2 0 **** 0
554 C 27.0861 72.3088 42.1285 C.2 0 **** 0.367
555 C 27.244 70.9798 39.9743 C.3 0 **** -0.106
556 C 28.4493 70.5033 39.1253 C.3 0 **** -0.106
557 C 29.0136 71.6474 38.2825 C.2 0 **** 0
558 C 29.0517 72.9421 38.8481 C.2 0 **** 0.2405
559 N 29.558 74.0003 38.1794 N.2 0 **** -0.481
560 C 30.1144 73.7803 36.9925 C.2 0 **** 0.2405
561 C 30.0804 72.5158 36.3606 C.2 0 **** 0
562 C 29.5138 71.4544 37.019 C.2 0 **** 0
563 C 29.4735 70.0679 36.3951 C.3 0 **** -0.106
564 C 29.7372 70.079 34.8859 C.3 0 **** -0.106
565 C 30.9347 70.9677 34.567 C.3 0 **** -0.106
566 C 30.6151 72.4249 34.9529 C.3 0 **** -0.053
567 C 31.8624 73.3349 34.8042 C.3 0 **** -0.106
568 C 31.5387 74.7252 35.2824 C.2 0 **** 0
569 C 30.693 74.9184 36.3763 C.2 0 **** 0
570 C 30.443 76.2244 36.8336 C.2 0 **** -0.1268
571 C 31.0588 77.2942 36.2137 C.2 0 **** -0.1268
572 C 31.9313 77.1081 35.1559 C.2 0 **** 0
573 C 32.1832 75.8134 34.7033 C.2 0 **** 0
574 C 23.2009 67.2286 48.7762 C.3 0 **** -0.106
575 C 24.5028 66.5097 49.1888 C.3 0 **** -0.159
576 C 21.9165 67.8274 51.3086 C.3 0 **** -0.159
577 C 24.5526 69.4078 47.3129 C.3 0 **** -0.159
578 C 21.6175 70.5666 52.1629 C.3 0 **** -0.159
579 C 23.0093 75.3711 51.7639 C.3 0 **** -0.159
580 C 24.8354 77.3092 50.7062 C.3 0 **** -0.159
581 O 26.0643 77.9678 48.4256 O.3 0 **** -0.452
582 C 30.8296 79.3168 48.0475 C.3 0 **** -0.159
583 C 32.3614 77.7176 46.2451 C.3 0 **** -0.159
584 O 29.4525 76.5678 42.6382 O.3 0 **** -0.452
585 O 26.0769 72.7373 44.6839 O.3 0 **** -0.452
586 O 26.3357 71.4884 42.548 O.2 0 **** -0.419
587 O 29.6957 75.1132 40.6033 O.2 0 **** -0.419
588 C 33.1736 75.5994 33.5712 C.3 0 **** -0.159
589 C 32.5925 78.3283 34.5471 C.3 0 **** -0.159
590 H 25.4484 71.7284 48.1074 H 0 **** 0.053
591 H 23.9228 72.1089 47.2534 H 0 **** 0.053
592 H 21.823 73.0198 50.5998 H 0 **** 0.053
593 H 23.1476 72.7292 51.7599 H 0 **** 0.053
594 H 25.6829 73.1609 46.6337 H 0 **** 0.1268
595 H 30.7127 77.0557 44.3442 H 0 **** 0.053
596 H 30.0378 78.5675 44.9695 H 0 **** 0.053
597 H 30.9263 76.18 46.6646 H 0 **** 0.053
598 H 30.3132 77.2912 48.5416 H 0 **** 0.053
599 H 28.6026 79.2159 46.95 H 0 **** 0.053
600 H 28.231 78.3236 48.4256 H 0 **** 0.053
601 H 26.9046 70.1492 40.6199 H 0 **** 0.053
602 H 26.391 71.2468 39.3266 H 0 **** 0.053
603 H 28.1085 69.6432 38.5249 H 0 **** 0.053
604 H 29.2279 70.1012 39.8078 H 0 **** 0.053
605 H 30.2216 69.4183 36.8864 H 0 **** 0.053
606 H 28.4934 69.5951 36.5565 H 0 **** 0.053
607 H 28.8491 70.4667 34.3512 H 0 **** 0.053
608 H 29.8999 69.0507 34.5125 H 0 **** 0.053
609 H 31.2031 70.9127 33.4944 H 0 **** 0.053
610 H 31.8169 70.619 35.1347 H 0 **** 0.053
611 H 29.8327 72.7939 34.2455 H 0 **** 0.053
612 H 32.6966 72.9074 35.4059 H 0 **** 0.053
613 H 32.1932 73.3028 33.7435 H 0 **** 0.053
614 H 29.7702 76.4039 37.6814 H 0 **** 0.1268
615 H 30.862 78.3146 36.5796 H 0 **** 0.1268
616 H 23.0972 67.1876 47.6744 H 0 **** 0.053
617 H 22.34 66.6354 49.1323 H 0 **** 0.053
618 H 24.6123 66.4859 50.2856 H 0 **** 0.053
619 H 25.3901 67.013 48.7711 H 0 **** 0.053
620 H 24.5213 65.4603 48.8323 H 0 **** 0.053
621 H 21.898 68.0618 52.3909 H 0 **** 0.053
622 H 22.4905 66.8835 51.2435 H 0 **** 0.053
623 H 20.8715 67.5974 51.005 H 0 **** 0.053
624 H 25.623 69.6937 47.4225 H 0 **** 0.053
625 H 24.1463 69.993 46.4599 H 0 **** 0.053
626 H 24.5686 68.361 46.9751 H 0 **** 0.053
627 H 21.2163 71.5983 52.182 H 0 **** 0.053
628 H 22.242 70.4492 53.0762 H 0 **** 0.053
629 H 20.7286 69.9186 52.2846 H 0 **** 0.053
630 H 22.6699 76.4217 51.8025 H 0 **** 0.053
631 H 23.5826 75.1673 52.6974 H 0 **** 0.053
632 H 22.0675 74.7799 51.83 H 0 **** 0.053
633 H 25.8938 77.6515 50.7151 H 0 **** 0.053
634 H 24.5891 77.2522 51.8014 H 0 **** 0.053
635 H 24.2173 78.1494 50.2956 H 0 **** 0.053
636 H 26.3722 78.504 47.6907 H 0 **** 0.41
637 H 31.8712 79.2149 48.3799 H 0 **** 0.053
638 H 30.2641 79.7834 48.8765 H 0 **** 0.053
639 H 30.7978 80.0195 47.1917 H 0 **** 0.053
640 H 32.8275 77.1382 45.4261 H 0 **** 0.053
641 H 32.9726 77.565 47.1472 H 0 **** 0.053
642 H 32.4156 78.7863 45.957 H 0 **** 0.053
643 H 29.7869 76.2905 41.7715 H 0 **** 0.41
644 H 25.9534 72.0361 44.0269 H 0 **** 0.41
645 H 33.9214 74.8257 33.8276 H 0 **** 0.053
646 H 33.7594 76.5034 33.3172 H 0 **** 0.053
647 H 32.6667 75.2827 32.636 H 0 **** 0.053
648 H 33.691 78.3049 34.6687 H 0 **** 0.053
649 H 32.2467 79.2664 35.0157 H 0 **** 0.053
650 H 32.3763 78.418 33.468 H 0 **** 0.053
651 C 48.4553 97.9123 46.8609 C.2 0 **** 0
652 C 48.8136 96.6194 46.5121 C.2 0 **** 0
653 C 47.8508 95.6243 46.46 C.2 0 **** 0
654 C 46.5448 95.9392 46.7427 C.2 0 **** 0
655 C 46.1702 97.2442 47.0389 C.2 0 **** 0
656 C 47.1292 98.2346 47.0876 C.2 0 **** 0
657 C 45.4735 94.8677 46.7177 C.3 0 **** -0.106
658 C 45.8954 93.4155 46.5399 C.2 0 **** 0
659 C 47.194 93.0939 46.2593 C.2 0 **** 0
660 C 48.2406 94.194 46.0967 C.3 0 **** -0.106
661 C 47.5584 91.75 46.1284 C.2 0 **** 0
662 C 46.6469 90.7367 46.3505 C.2 0 **** 0
663 C 45.3085 91.0643 46.5346 C.2 0 **** 0
664 C 44.924 92.4056 46.6505 C.2 0 **** 0
665 C 43.5979 92.7313 46.8918 C.2 0 **** -0.1268
666 C 42.6079 91.8106 47.1661 C.2 0 **** 0
667 C 43.0708 90.4473 47.1853 C.2 0 **** 0
668 C 44.3149 90.0971 46.6545 C.2 0 **** 0.042
669 C 42.093 89.3169 47.5634 C.3 0 **** 0
670 C 40.6372 89.6836 47.862 C.3 0 **** 0
671 C 40.1951 91.1362 47.5943 C.2 0 **** 0
672 C 41.1638 92.15 47.2956 C.2 0 **** 0
673 C 39.9554 88.7843 48.9151 C.3 0 **** -0.106
674 C 40.844 88.5663 50.1439 C.3 0 **** -0.053
675 C 42.1851 87.8651 49.7695 C.3 0 **** -0.053
676 C 42.5706 88.0285 48.2757 C.3 0 **** -0.106
677 C 40.6481 93.4252 46.9887 C.2 0 **** 0.042
678 C 39.2905 93.6649 47.0099 C.2 0 **** 0.052
679 C 38.3832 92.6505 47.2766 C.2 0 **** 0.052
680 C 38.8361 91.3779 47.5044 C.2 0 **** 0.042
681 C 36.8949 92.8815 47.2949 C.2 0 **** 0.367
682 C 36.4351 94.2732 47.0128 C.2 0 **** 0
683 C 37.3038 95.2541 46.7394 C.2 0 **** 0
684 C 38.7722 95.0501 46.7174 C.2 0 **** 0.367
685 C 36.8307 96.6634 46.4662 C.3 0 **** -0.106
686 C 35.5946 96.9613 47.3514 C.3 0 **** -0.106
687 C 34.5244 95.8834 47.1776 C.2 0 **** 0
688 C 34.9409 94.5415 47.0229 C.2 0 **** 0.2405
689 N 34.0579 93.5287 46.8922 N.2 0 **** -0.481
690 C 32.7636 93.8107 47.0043 C.2 0 **** 0.2405
691 C 32.2834 95.1352 47.1293 C.2 0 **** 0
692 C 33.1823 96.1695 47.2029 C.2 0 **** 0
693 C 32.722 97.6131 47.3616 C.3 0 **** -0.106
694 C 31.2357 97.8031 47.0353 C.3 0 **** -0.106
695 C 30.4009 96.7085 47.6917 C.3 0 **** -0.106
696 C 30.7889 95.3384 47.1039 C.3 0 **** -0.053
697 C 30.0853 94.1796 47.8588 C.3 0 **** -0.106
698 C 30.5642 92.8569 47.3226 C.2 0 **** 0
699 C 31.8938 92.6935 46.9295 C.2 0 **** 0
700 C 32.3289 91.4353 46.4762 C.2 0 **** -0.1268
701 C 31.4449 90.3739 46.4533 C.2 0 **** -0.1268
702 C 30.1369 90.5174 46.8814 C.2 0 **** 0
703 C 29.7043 91.7633 47.3347 C.2 0 **** 0
704 C 46.7331 99.6638 47.3577 C.3 0 **** -0.106
705 C 46.6223 99.9343 48.8733 C.3 0 **** -0.159
706 C 49.5254 98.9651 46.9888 C.3 0 **** -0.159
707 C 44.7104 97.5132 47.3221 C.3 0 **** -0.159
708 C 50.2518 96.2879 46.1967 C.3 0 **** -0.159
709 C 49.0154 91.444 45.7804 C.3 0 **** -0.159
710 C 47.1829 89.325 46.3868 C.3 0 **** -0.159
711 O 44.5556 88.7883 46.3435 O.3 0 **** -0.452
712 C 42.184 86.3562 50.0227 C.3 0 **** -0.159
713 C 40.0187 87.8061 51.1888 C.3 0 **** -0.159
714 O 37.9976 90.3077 47.6635 O.3 0 **** -0.452
715 O 41.4846 94.4388 46.6523 O.3 0 **** -0.452
716 O 39.5131 95.9467 46.4721 O.2 0 **** -0.419
717 O 36.1383 91.9948 47.5673 O.2 0 **** -0.419
718 C 28.2821 91.9164 47.8475 C.3 0 **** -0.159
719 C 29.2348 89.2996 46.8563 C.3 0 **** -0.159
720 H 44.9201 94.9349 47.6831 H 0 **** 0.053
721 H 44.7418 95.1226 45.9124 H 0 **** 0.053
722 H 48.5889 94.1927 45.0357 H 0 **** 0.053
723 H 49.1215 93.9153 46.7165 H 0 **** 0.053
724 H 43.3927 93.778 46.8995 H 0 **** 0.1268
725 H 39.0044 89.2064 49.245 H 0 **** 0.053
726 H 39.7533 87.8331 48.4177 H 0 **** 0.053
727 H 41.0848 89.5592 50.5648 H 0 **** 0.053
728 H 42.9743 88.3215 50.3817 H 0 **** 0.053
729 H 42.1027 87.2271 47.6969 H 0 **** 0.053
730 H 43.6568 87.9046 48.1896 H 0 **** 0.053
731 H 37.6101 97.4212 46.6661 H 0 **** 0.053
732 H 36.5726 96.7478 45.3962 H 0 **** 0.053
733 H 35.2427 97.9747 47.0922 H 0 **** 0.053
734 H 35.9215 97.0176 48.4116 H 0 **** 0.053
735 H 32.9032 97.9423 48.403 H 0 **** 0.053
736 H 33.2977 98.2956 46.7107 H 0 **** 0.053
737 H 31.0851 97.7612 45.9397 H 0 **** 0.053
738 H 30.8936 98.8041 47.3582 H 0 **** 0.053
739 H 29.3185 96.8868 47.545 H 0 **** 0.053
740 H 30.5787 96.7073 48.7825 H 0 **** 0.053
741 H 30.4409 95.319 46.0421 H 0 **** 0.053
742 H 30.3188 94.2594 48.9449 H 0 **** 0.053
743 H 28.9862 94.3175 47.7644 H 0 **** 0.053
744 H 33.3642 91.2838 46.1461 H 0 **** 0.1268
745 H 31.7934 89.3899 46.1004 H 0 **** 0.1268
746 H 45.7753 99.9316 46.8703 H 0 **** 0.053
747 H 47.4469 100.384 46.9205 H 0 **** 0.053
748 H 47.5776 99.7286 49.3838 H 0 **** 0.053
749 H 45.8475 99.3037 49.3392 H 0 **** 0.053
750 H 46.3572 100.99 49.0813 H 0 **** 0.053
751 H 50.5033 98.55 47.3024 H 0 **** 0.053
752 H 49.2915 99.7239 47.7596 H 0 **** 0.053
753 H 49.6915 99.5089 46.0328 H 0 **** 0.053
754 H 44.3552 96.9454 48.2115 H 0 **** 0.053
755 H 44.0627 97.2184 46.4686 H 0 **** 0.053
756 H 44.4634 98.5638 47.5352 H 0 **** 0.053
757 H 50.368 95.4093 45.5332 H 0 **** 0.053
758 H 50.8349 96.0718 47.1193 H 0 **** 0.053
759 H 50.7673 97.1101 45.6648 H 0 **** 0.053
760 H 49.1227 90.5285 45.1724 H 0 **** 0.053
761 H 49.6436 91.3195 46.6921 H 0 **** 0.053
762 H 49.4977 92.2364 45.1638 H 0 **** 0.053
763 H 46.7318 88.7274 47.2096 H 0 **** 0.053
764 H 48.284 89.2442 46.598 H 0 **** 0.053
765 H 47.0091 88.7613 45.4334 H 0 **** 0.053
766 H 43.7198 88.3296 46.2243 H 0 **** 0.41
767 H 42.0668 86.1234 51.0893 H 0 **** 0.053
768 H 43.1398 85.9082 49.691 H 0 **** 0.053
769 H 41.373 85.8545 49.4591 H 0 **** 0.053
770 H 39.1193 88.3848 51.4716 H 0 **** 0.053
771 H 40.5994 87.6286 52.1063 H 0 **** 0.053
772 H 39.6659 86.831 50.7979 H 0 **** 0.053
773 H 37.0887 90.6408 47.7129 H 0 **** 0.41
774 H 40.9796 95.2543 46.5136 H 0 **** 0.41
775 H 28.259 92.4104 48.8368 H 0 **** 0.053
776 H 27.7542 90.9536 47.9859 H 0 **** 0.053
777 H 27.6581 92.5182 47.1546 H 0 **** 0.053
778 H 28.8979 89.0157 47.8701 H 0 **** 0.053
779 H 29.7434 88.4137 46.4371 H 0 **** 0.053
780 H 28.3352 89.4668 46.2384 H 0 **** 0.053
781 C 20.6437 98.561 35.5238 C.2 0 **** 0
782 C 19.6109 98.2985 36.4098 C.2 0 **** 0
783 C 18.7396 97.2492 36.1661 C.2 0 **** 0
784 C 18.9242 96.4695 35.0512 C.2 0 **** 0
785 C 19.993 96.6905 34.1908 C.2 0 **** 0
786 C 20.8609 97.7343 34.4364 C.2 0 **** 0
787 C 17.9734 95.3304 34.7445 C.3 0 **** -0.106
788 C 16.7217 95.1739 35.5968 C.2 0 **** 0
789 C 16.5303 95.9473 36.7077 C.2 0 **** 0
790 C 17.5856 96.9689 37.1246 C.3 0 **** -0.106
791 C 15.3583 95.8003 37.4563 C.2 0 **** 0
792 C 14.3555 94.9408 37.0535 C.2 0 **** 0
793 C 14.593 94.0834 35.9854 C.2 0 **** 0
794 C 15.7692 94.2054 35.2358 C.2 0 **** 0
795 C 15.9815 93.3889 34.1353 C.2 0 **** -0.1268
796 C 15.0421 92.5217 33.617 C.2 0 **** 0
797 C 13.7886 92.5314 34.3255 C.2 0 **** 0
798 C 13.6758 93.114 35.5904 C.2 0 **** 0.042
799 C 12.6152 91.6763 33.8073 C.3 0 **** 0
800 C 12.8422 90.8018 32.5716 C.3 0 **** 0
801 C 14.2799 90.6928 32.0255 C.2 0 **** 0
802 C 15.3144 91.554 32.5185 C.2 0 **** 0
803 C 11.5952 90.6198 31.6805 C.3 0 **** -0.106
804 C 10.8763 91.9478 31.423 C.3 0 **** -0.053
805 C 10.378 92.6009 32.748 C.3 0 **** -0.053
806 C 11.1419 92.1073 34.0047 C.3 0 **** -0.106
807 C 16.6081 91.3177 32.0114 C.2 0 **** 0.042
808 C 16.8335 90.3308 31.0754 C.2 0 **** 0.052
809 C 15.8108 89.4996 30.6437 C.2 0 **** 0.052
810 C 14.5534 89.6423 31.1681 C.2 0 **** 0.042
811 C 16.0309 88.4059 29.6317 C.2 0 **** 0.367
812 C 17.4197 88.2591 29.1041 C.2 0 **** 0
813 C 18.415 89.0474 29.5272 C.2 0 **** 0
814 C 18.2212 90.1303 30.5213 C.2 0 **** 0.367
815 C 19.8163 88.8995 28.9797 C.3 0 **** -0.106
816 C 19.7343 88.5082 27.4829 C.3 0 **** -0.106
817 C 18.8382 87.2851 27.2851 C.2 0 **** 0
818 C 17.6772 87.1661 28.0825 C.2 0 **** 0.2405
819 N 16.8216 86.13 27.9509 N.2 0 **** -0.481
820 C 17.0458 85.255 26.9756 C.2 0 **** 0.2405
821 C 18.2041 85.3028 26.1653 C.2 0 **** 0
822 C 19.1035 86.3243 26.3415 C.2 0 **** 0
823 C 20.3562 86.4379 25.4819 C.3 0 **** -0.106
824 C 20.6823 85.1409 24.7311 C.3 0 **** -0.106
825 C 19.4241 84.5633 24.0915 C.3 0 **** -0.106
826 C 18.4175 84.1719 25.1899 C.3 0 **** -0.053
827 C 17.0584 83.7353 24.5818 C.3 0 **** -0.106
828 C 16.0723 83.4565 25.6847 C.2 0 **** 0
829 C 16.0713 84.2335 26.8447 C.2 0 **** 0
830 C 15.1099 83.9839 27.8404 C.2 0 **** -0.1268
831 C 14.1645 82.9955 27.6453 C.2 0 **** -0.1268
832 C 14.1328 82.2498 26.48 C.2 0 **** 0
833 C 15.083 82.498 25.4899 C.2 0 **** 0
834 C 22.0542 97.9554 33.5428 C.3 0 **** -0.106
835 C 21.6733 98.7916 32.3032 C.3 0 **** -0.159
836 C 21.5289 99.7545 35.7627 C.3 0 **** -0.159
837 C 20.1387 95.7773 32.9952 C.3 0 **** -0.159
838 C 19.4256 99.1584 37.6364 C.3 0 **** -0.159
839 C 15.2075 96.6642 38.7087 C.3 0 **** -0.159
840 C 13.0502 95.0043 37.8107 C.3 0 **** -0.159
841 O 12.6126 92.778 36.3805 O.3 0 **** -0.452
842 C 8.90027 92.3399 33.0467 C.3 0 **** -0.159
843 C 9.76061 91.6857 30.4044 C.3 0 **** -0.159
844 O 13.5244 88.7887 30.875 O.3 0 **** -0.452
845 O 17.6602 92.0531 32.4504 O.3 0 **** -0.452
846 O 19.1306 90.8099 30.873 O.2 0 **** -0.419
847 O 15.1212 87.7288 29.2495 O.2 0 **** -0.419
848 C 15.0263 81.7129 24.1901 C.3 0 **** -0.159
849 C 13.0462 81.2045 26.3251 C.3 0 **** -0.159
850 H 17.6407 95.4567 33.6882 H 0 **** 0.053
851 H 18.5488 94.3734 34.7849 H 0 **** 0.053
852 H 18.0212 96.6456 38.1006 H 0 **** 0.053
853 H 17.0647 97.9327 37.3177 H 0 **** 0.053
854 H 16.9327 93.5117 33.6685 H 0 **** 0.1268
855 H 11.8534 90.1727 30.7188 H 0 **** 0.053
856 H 10.9385 89.9287 32.2138 H 0 **** 0.053
857 H 11.6015 92.6377 30.9552 H 0 **** 0.053
858 H 10.529 93.6845 32.6551 H 0 **** 0.053
859 H 10.6584 91.2022 34.3831 H 0 **** 0.053
860 H 11.052 92.8766 34.781 H 0 **** 0.053
861 H 20.4136 89.824 29.08 H 0 **** 0.053
862 H 20.3402 88.1188 29.5581 H 0 **** 0.053
863 H 20.7681 88.3573 27.127 H 0 **** 0.053
864 H 19.3418 89.375 26.9094 H 0 **** 0.053
865 H 20.2215 87.2526 24.7446 H 0 **** 0.053
866 H 21.2405 86.7051 26.0883 H 0 **** 0.053
867 H 21.1011 84.3965 25.4349 H 0 **** 0.053
868 H 21.4629 85.3212 23.9686 H 0 **** 0.053
869 H 19.6603 83.6807 23.467 H 0 **** 0.053
870 H 18.968 85.3149 23.4217 H 0 **** 0.053
871 H 18.8446 83.2977 25.7397 H 0 **** 0.053
872 H 16.6771 84.5494 23.9242 H 0 **** 0.053
873 H 17.2363 82.8581 23.9223 H 0 **** 0.053
874 H 15.0962 84.5691 28.7683 H 0 **** 0.1268
875 H 13.4116 82.808 28.4278 H 0 **** 0.1268
876 H 22.5122 97.0027 33.2121 H 0 **** 0.053
877 H 22.8809 98.4622 34.0699 H 0 **** 0.053
878 H 21.2632 99.7719 32.5975 H 0 **** 0.053
879 H 20.9156 98.2784 31.6887 H 0 **** 0.053
880 H 22.5506 98.9825 31.6531 H 0 **** 0.053
881 H 21.0078 100.586 36.2733 H 0 **** 0.053
882 H 21.9145 100.201 34.8277 H 0 **** 0.053
883 H 22.4042 99.4936 36.3911 H 0 **** 0.053
884 H 19.2574 95.847 32.3185 H 0 **** 0.053
885 H 20.2328 94.7121 33.2973 H 0 **** 0.053
886 H 21.009 95.9836 32.3548 H 0 **** 0.053
887 H 18.9009 98.6426 38.4637 H 0 **** 0.053
888 H 18.8394 100.076 37.4084 H 0 **** 0.053
889 H 20.3888 99.4822 38.0752 H 0 **** 0.053
890 H 14.626 96.1626 39.5022 H 0 **** 0.053
891 H 14.7082 97.6351 38.4866 H 0 **** 0.053
892 H 16.1785 96.9068 39.1975 H 0 **** 0.053
893 H 12.1702 94.9537 37.1317 H 0 **** 0.053
894 H 12.8759 95.9638 38.3697 H 0 **** 0.053
895 H 12.9354 94.1824 38.5644 H 0 **** 0.053
896 H 12.2508 91.9371 36.0888 H 0 **** 0.41
897 H 8.24675 92.7851 32.2848 H 0 **** 0.053
898 H 8.61864 92.7828 34.0209 H 0 **** 0.053
899 H 8.68704 91.2544 33.1056 H 0 **** 0.053
900 H 10.1799 91.2944 29.4584 H 0 **** 0.053
901 H 9.21095 92.6084 30.1655 H 0 **** 0.053
902 H 9.03979 90.9301 30.7755 H 0 **** 0.053
903 H 13.8156 88.1955 30.1662 H 0 **** 0.41
904 H 18.4647 91.8006 31.9728 H 0 **** 0.41
905 H 15.0651 82.3822 23.3104 H 0 **** 0.053
906 H 14.0993 81.1205 24.0696 H 0 **** 0.053
907 H 15.8688 80.9954 24.1064 H 0 **** 0.053
908 H 12.371 81.4344 25.4807 H 0 **** 0.053
909 H 12.4083 81.1312 27.2234 H 0 **** 0.053
910 H 13.4655 80.1975 26.1548 H 0 **** 0.053
911 C 36.4978 75.9134 39.9924 C.2 0 **** 0
912 C 37.2297 74.7537 39.7904 C.2 0 **** 0
913 C 38.2093 74.3857 40.6989 C.2 0 **** 0
914 C 38.4319 75.1732 41.8013 C.2 0 **** 0
915 C 37.6642 76.3071 42.0388 C.2 0 **** 0
916 C 36.6877 76.6706 41.1346 C.2 0 **** 0
917 C 39.5115 74.8092 42.8008 C.3 0 **** -0.106
918 C 40.4511 73.6562 42.4749 C.2 0 **** 0
919 C 40.2369 72.8681 41.3786 C.2 0 **** 0
920 C 39.0329 73.1205 40.4734 C.3 0 **** -0.106
921 C 41.1313 71.8329 41.0886 C.2 0 **** 0
922 C 42.269 71.6375 41.8464 C.2 0 **** 0
923 C 42.4325 72.3706 43.0161 C.2 0 **** 0
924 C 41.5362 73.3991 43.3306 C.2 0 **** 0
925 C 41.7306 74.1687 44.4676 C.2 0 **** -0.1268
926 C 42.844 74.0917 45.2784 C.2 0 **** 0
927 C 43.8167 73.1248 44.84 C.2 0 **** 0
928 C 43.4946 72.1533 43.8889 C.2 0 **** 0.042
929 C 45.1514 72.9899 45.5997 C.3 0 **** 0
930 C 45.3775 73.8654 46.8348 C.3 0 **** 0
931 C 44.1874 74.7005 47.3482 C.2 0 **** 0
932 C 42.9919 74.8236 46.5668 C.2 0 **** 0
933 C 46.8469 74.2776 47.0653 C.3 0 **** -0.106
934 C 47.5113 74.7737 45.7774 C.3 0 **** -0.053
935 C 47.5317 73.6702 44.6763 C.3 0 **** -0.053
936 C 46.4583 72.57 44.8851 C.3 0 **** -0.106
937 C 41.9361 75.542 47.163 C.2 0 **** 0.042
938 C 42.0801 76.1081 48.4119 C.2 0 **** 0.052
939 C 43.2436 75.9432 49.1485 C.2 0 **** 0.052
940 C 44.2665 75.187 48.6406 C.2 0 **** 0.042
941 C 43.4236 76.5409 50.519 C.2 0 **** 0.367
942 C 42.2782 77.3331 51.0544 C.2 0 **** 0
943 C 41.146 77.4833 50.3562 C.2 0 **** 0
944 C 40.9466 76.9057 49.0049 C.2 0 **** 0.367
945 C 39.994 78.2967 50.9004 C.3 0 **** -0.106
946 C 40.5579 79.4917 51.7096 C.3 0 **** -0.106
947 C 41.5576 79.016 52.7635 C.2 0 **** 0
948 C 42.4256 77.9502 52.4338 C.2 0 **** 0.2405
949 N 43.3564 77.4918 53.298 N.2 0 **** -0.481
950 C 43.4968 78.1245 54.4586 C.2 0 **** 0.2405
951 C 42.6334 79.1698 54.8628 C.2 0 **** 0
952 C 41.6604 79.6062 53.9986 C.2 0 **** 0
953 C 40.7277 80.7536 54.3672 C.3 0 **** -0.106
954 C 40.7382 81.0752 55.8668 C.3 0 **** -0.106
955 C 42.1678 81.1135 56.393 C.3 0 **** -0.106
956 C 42.7957 79.7096 56.2644 C.3 0 **** -0.053
957 C 44.2928 79.7467 56.6258 C.3 0 **** -0.106
958 C 44.9407 78.4153 56.3745 C.2 0 **** 0
959 C 44.5378 77.6372 55.2891 C.2 0 **** 0
960 C 45.1708 76.4037 55.0501 C.2 0 **** -0.1268
961 C 46.2 75.9931 55.8755 C.2 0 **** -0.1268
962 C 46.6392 76.7829 56.9235 C.2 0 **** 0
963 C 46.0163 78.0097 57.1575 C.2 0 **** 0
964 C 35.8123 77.8679 41.4027 C.3 0 **** -0.106
965 C 36.493 79.1707 40.9324 C.3 0 **** -0.159
966 C 35.4903 76.3401 38.9562 C.3 0 **** -0.159
967 C 37.9584 77.1115 43.2841 C.3 0 **** -0.159
968 C 36.9697 73.8925 38.5786 C.3 0 **** -0.159
969 C 40.8289 70.9586 39.8714 C.3 0 **** -0.159
970 C 43.2722 70.6315 41.3337 C.3 0 **** -0.159
971 O 44.2869 71.0452 43.7815 O.3 0 **** -0.452
972 C 48.8623 72.9212 44.5782 C.3 0 **** -0.159
973 C 48.901 75.308 46.144 C.3 0 **** -0.159
974 O 45.3955 74.8883 49.3551 O.3 0 **** -0.452
975 O 40.7499 75.6759 46.5187 O.3 0 **** -0.452
976 O 39.9271 77.0619 48.4153 O.2 0 **** -0.419
977 O 44.4548 76.4159 51.1157 O.2 0 **** -0.419
978 C 46.5272 78.898 58.2803 C.3 0 **** -0.159
979 C 47.7942 76.277 57.7663 C.3 0 **** -0.159
980 H 40.1412 75.717 42.9484 H 0 **** 0.053
981 H 39.0228 74.5976 43.7832 H 0 **** 0.053
982 H 38.3448 72.2445 40.5529 H 0 **** 0.053
983 H 39.3985 73.1375 39.4229 H 0 **** 0.053
984 H 40.9611 74.8829 44.6566 H 0 **** 0.1268
985 H 46.9283 75.0605 47.8214 H 0 **** 0.053
986 H 47.3577 73.387 47.4382 H 0 **** 0.053
987 H 46.9157 75.6229 45.3968 H 0 **** 0.053
988 H 47.3379 74.1641 43.7149 H 0 **** 0.053
989 H 46.8675 71.7914 45.5351 H 0 **** 0.053
990 H 46.2503 72.1091 43.9119 H 0 **** 0.053
991 H 39.3292 78.6799 50.1049 H 0 **** 0.053
992 H 39.3763 77.6465 51.544 H 0 **** 0.053
993 H 39.6961 80.0339 52.1354 H 0 **** 0.053
994 H 41.0423 80.2009 51.0054 H 0 **** 0.053
995 H 41.0231 81.6605 53.8051 H 0 **** 0.053
996 H 39.6842 80.5317 54.0806 H 0 **** 0.053
997 H 40.1793 80.2971 56.4198 H 0 **** 0.053
998 H 40.2203 82.032 56.0627 H 0 **** 0.053
999 H 42.202 81.4444 57.4483 H 0 **** 0.053
1000 H 42.7581 81.8452 55.8122 H 0 **** 0.053
1001 H 42.2739 79.0331 56.9807 H 0 **** 0.053
1002 H 44.7233 80.5128 55.9556 H 0 **** 0.053
1003 H 44.4166 80.1145 57.6642 H 0 **** 0.053
1004 H 44.8556 75.7606 54.2172 H 0 **** 0.1268
1005 H 46.6869 75.0221 55.6872 H 0 **** 0.1268
1006 H 35.5495 77.9618 42.4745 H 0 **** 0.053
1007 H 34.828 77.7836 40.9087 H 0 **** 0.053
1008 H 36.7213 79.1318 39.8545 H 0 **** 0.053
1009 H 37.4376 79.3489 41.4719 H 0 **** 0.053
1010 H 35.8456 80.0544 41.1009 H 0 **** 0.053
1011 H 35.7644 76.0218 37.9312 H 0 **** 0.053
1012 H 35.3897 77.4396 38.8822 H 0 **** 0.053
1013 H 34.4768 75.9318 39.1651 H 0 **** 0.053
1014 H 38.9969 77.5127 43.2757 H 0 **** 0.053
1015 H 37.8543 76.4997 44.206 H 0 **** 0.053
1016 H 37.313 77.9895 43.4346 H 0 **** 0.053
1017 H 37.2529 72.8317 38.7205 H 0 **** 0.053
1018 H 37.5295 74.2571 37.6889 H 0 **** 0.053
1019 H 35.8978 73.8617 38.3046 H 0 **** 0.053
1020 H 41.1748 69.9179 40.0004 H 0 **** 0.053
1021 H 41.3 71.3588 38.9445 H 0 **** 0.053
1022 H 39.7399 70.8573 39.6601 H 0 **** 0.053
1023 H 44.3188 70.994 41.4385 H 0 **** 0.053
1024 H 43.1969 70.4091 40.2345 H 0 **** 0.053
1025 H 43.2106 69.6404 41.8543 H 0 **** 0.053
1026 H 44.7807 70.9243 44.5966 H 0 **** 0.41
1027 H 49.6832 73.5879 44.2823 H 0 **** 0.053
1028 H 48.7997 72.1196 43.8179 H 0 **** 0.053
1029 H 49.1261 72.4408 45.541 H 0 **** 0.053
1030 H 48.8208 76.1384 46.8705 H 0 **** 0.053
1031 H 49.4286 75.6935 45.2587 H 0 **** 0.053
1032 H 49.5272 74.5248 46.616 H 0 **** 0.053
1033 H 45.3761 75.4009 50.1769 H 0 **** 0.41
1034 H 40.1489 76.231 47.0379 H 0 **** 0.41
1035 H 46.7129 79.9308 57.9313 H 0 **** 0.053
1036 H 47.4877 78.5581 58.7138 H 0 **** 0.053
1037 H 45.8064 78.9493 59.1219 H 0 **** 0.053
1038 H 48.6776 76.9374 57.6955 H 0 **** 0.053
1039 H 48.1292 75.2722 57.4531 H 0 **** 0.053
1040 H 47.5199 76.196 58.8329 H 0 **** 0.053
1041 C 19.1638 -3.03318 23.0519 C.2 0 **** 0
1042 C 19.1237 -4.05788 22.1193 C.2 0 **** 0
1043 C 19.7272 -3.89272 20.8827 C.2 0 **** 0
1044 C 20.3734 -2.71397 20.6036 C.2 0 **** 0
1045 C 20.4653 -1.70436 21.5541 C.2 0 **** 0
1046 C 19.8658 -1.8712 22.7853 C.2 0 **** 0
1047 C 21.0236 -2.49504 19.2521 C.3 0 **** -0.106
1048 C 20.8031 -3.53097 18.1583 C.2 0 **** 0
1049 C 20.1595 -4.70653 18.428 C.2 0 **** 0
1050 C 19.6702 -5.00855 19.8429 C.3 0 **** -0.106
1051 C 19.9471 -5.62802 17.3977 C.2 0 **** 0
1052 C 20.3089 -5.34165 16.0962 C.2 0 **** 0
1053 C 21.0523 -4.19495 15.8412 C.2 0 **** 0
1054 C 21.2891 -3.27021 16.8654 C.2 0 **** 0
1055 C 21.9814 -2.09858 16.5991 C.2 0 **** -0.1268
1056 C 22.3593 -1.68749 15.3377 C.2 0 **** 0
1057 C 21.9676 -2.59335 14.2893 C.2 0 **** 0
1058 C 21.5482 -3.89494 14.5757 C.2 0 **** 0.042
1059 C 22.2467 -2.22211 12.8192 C.3 0 **** 0
1060 C 22.9814 -0.911567 12.5263 C.3 0 **** 0
1061 C 23.5538 -0.12829 13.7247 C.2 0 **** 0
1062 C 23.2131 -0.497723 15.0674 C.2 0 **** 0
1063 C 22.5684 -0.229523 11.2047 C.3 0 **** -0.106
1064 C 21.0465 -0.182748 11.0355 C.3 0 **** -0.053
1065 C 20.4246 -1.61201 11.0054 C.3 0 **** -0.053
1066 C 21.3217 -2.68921 11.6696 C.3 0 **** -0.106
1067 C 23.8529 0.231913 16.0895 C.2 0 **** 0.042
1068 C 24.7272 1.2549 15.7896 C.2 0 **** 0.052
1069 C 25.0524 1.56419 14.4774 C.2 0 **** 0.052
1070 C 24.5145 0.829508 13.454 C.2 0 **** 0.042
1071 C 26.0134 2.66817 14.1209 C.2 0 **** 0.367
1072 C 26.6045 3.42754 15.2623 C.2 0 **** 0
1073 C 26.3075 3.12469 16.5317 C.2 0 **** 0
1074 C 25.3642 2.04399 16.9048 C.2 0 **** 0.367
1075 C 26.9027 3.90526 17.6809 C.3 0 **** -0.106
1076 C 27.0443 5.39018 17.2622 C.3 0 **** -0.106
1077 C 27.8054 5.51676 15.9423 C.2 0 **** 0
1078 C 27.5776 4.54709 14.9393 C.2 0 **** 0.2405
1079 N 28.192 4.60171 13.7386 N.2 0 **** -0.481
1080 C 28.9555 5.65786 13.4757 C.2 0 **** 0.2405
1081 C 29.2465 6.64425 14.4466 C.2 0 **** 0
1082 C 28.6694 6.55262 15.6883 C.2 0 **** 0
1083 C 28.9296 7.59846 16.7651 C.3 0 **** -0.106
1084 C 30.1492 8.47667 16.4598 C.3 0 **** -0.106
1085 C 30.126 8.93536 15.0054 C.3 0 **** -0.106
1086 C 30.2435 7.71338 14.0748 C.3 0 **** -0.053
1087 C 30.0564 8.11536 12.5879 C.3 0 **** -0.106
1088 C 30.0795 6.88468 11.7209 C.2 0 **** 0
1089 C 29.511 5.69184 12.1717 C.2 0 **** 0
1090 C 29.5036 4.56849 11.3254 C.2 0 **** -0.1268
1091 C 30.0314 4.66834 10.0525 C.2 0 **** -0.1268
1092 C 30.5583 5.85876 9.58344 C.2 0 **** 0
1093 C 30.5637 6.97481 10.4199 C.2 0 **** 0
1094 C 19.9994 -0.807931 23.8452 C.3 0 **** -0.106
1095 C 18.9333 0.293551 23.6654 C.3 0 **** -0.159
1096 C 18.4368 -3.19851 24.3613 C.3 0 **** -0.159
1097 C 21.2093 -0.443921 21.1768 C.3 0 **** -0.159
1098 C 18.4166 -5.35177 22.4418 C.3 0 **** -0.159
1099 C 19.2534 -6.94209 17.7576 C.3 0 **** -0.159
1100 C 19.854 -6.3074 15.0277 C.3 0 **** -0.159
1101 O 21.5555 -4.82685 13.5765 O.3 0 **** -0.452
1102 C 20.146 -2.13408 9.59419 C.3 0 **** -0.159
1103 C 20.7405 0.651529 9.78599 C.3 0 **** -0.159
1104 O 24.8765 1.00148 12.1453 O.3 0 **** -0.452
1105 O 23.6271 -0.0726369 17.3923 O.3 0 **** -0.452
1106 O 25.1254 1.80399 18.0449 O.2 0 **** -0.419
1107 O 26.2467 2.93558 12.9785 O.2 0 **** -0.419
1108 C 31.101 8.29598 9.89575 C.3 0 **** -0.159
1109 C 31.0903 5.89911 8.16478 C.3 0 **** -0.159
1110 H 20.651 -1.51923 18.8629 H 0 **** 0.053
1111 H 22.1239 -2.37648 19.4074 H 0 **** 0.053
1112 H 20.2528 -5.87559 20.2376 H 0 **** 0.053
1113 H 18.6136 -5.34855 19.7687 H 0 **** 0.053
1114 H 22.1685 -1.48966 17.4547 H 0 **** 0.1268
1115 H 22.956 0.788994 11.1428 H 0 **** 0.053
1116 H 23.0223 -0.817598 10.4039 H 0 **** 0.053
1117 H 20.6274 0.352735 11.9064 H 0 **** 0.053
1118 H 19.4749 -1.56663 11.5545 H 0 **** 0.053
1119 H 22.0181 -3.08241 10.9234 H 0 **** 0.053
1120 H 20.6783 -3.51852 11.9874 H 0 **** 0.053
1121 H 26.2911 3.84495 18.5996 H 0 **** 0.053
1122 H 27.8886 3.47409 17.927 H 0 **** 0.053
1123 H 27.5275 5.92204 18.0999 H 0 **** 0.053
1124 H 26.0292 5.83213 17.1699 H 0 **** 0.053
1125 H 28.0393 8.2483 16.8664 H 0 **** 0.053
1126 H 29.0925 7.13089 17.7529 H 0 **** 0.053
1127 H 31.0781 7.90278 16.64 H 0 **** 0.053
1128 H 30.1822 9.34477 17.1442 H 0 **** 0.053
1129 H 30.9473 9.64712 14.7959 H 0 **** 0.053
1130 H 29.1809 9.46941 14.7973 H 0 **** 0.053
1131 H 31.2752 7.30057 14.1925 H 0 **** 0.053
1132 H 29.0833 8.6457 12.4748 H 0 **** 0.053
1133 H 30.8463 8.85154 12.3232 H 0 **** 0.053
1134 H 29.0764 3.6151 11.6602 H 0 **** 0.1268
1135 H 30.0173 3.78598 9.39261 H 0 **** 0.1268
1136 H 21.0047 -0.343221 23.8465 H 0 **** 0.053
1137 H 19.9125 -1.2223 24.8652 H 0 **** 0.053
1138 H 17.9156 -0.127969 23.712 H 0 **** 0.053
1139 H 19.0432 0.805957 22.6956 H 0 **** 0.053
1140 H 19.0065 1.06675 24.4564 H 0 **** 0.053
1141 H 17.5423 -3.84645 24.2782 H 0 **** 0.053
1142 H 18.0449 -2.24251 24.7577 H 0 **** 0.053
1143 H 19.0887 -3.63767 25.1481 H 0 **** 0.053
1144 H 20.7298 0.0709837 20.314 H 0 **** 0.053
1145 H 22.2604 -0.655711 20.8847 H 0 **** 0.053
1146 H 21.2677 0.317338 21.9687 H 0 **** 0.053
1147 H 18.7957 -6.2185 21.8666 H 0 **** 0.053
1148 H 17.3252 -5.2844 22.2361 H 0 **** 0.053
1149 H 18.5355 -5.64589 23.5021 H 0 **** 0.053
1150 H 19.5942 -7.78635 17.1327 H 0 **** 0.053
1151 H 18.1465 -6.87018 17.6534 H 0 **** 0.053
1152 H 19.4568 -7.2779 18.8 H 0 **** 0.053
1153 H 19.4849 -5.7821 14.119 H 0 **** 0.053
1154 H 18.9772 -6.94941 15.315 H 0 **** 0.053
1155 H 20.6594 -7.01411 14.6979 H 0 **** 0.053
1156 H 22.1536 -4.54459 12.8795 H 0 **** 0.41
1157 H 19.3963 -1.52208 9.0751 H 0 **** 0.053
1158 H 19.7547 -3.16843 9.63475 H 0 **** 0.053
1159 H 21.0697 -2.15615 8.98279 H 0 **** 0.053
1160 H 21.1394 1.6777 9.89457 H 0 **** 0.053
1161 H 19.6568 0.734886 9.61505 H 0 **** 0.053
1162 H 21.2094 0.216436 8.88087 H 0 **** 0.053
1163 H 25.4364 1.79072 12.0875 H 0 **** 0.41
1164 H 24.1071 0.54467 17.9647 H 0 **** 0.41
1165 H 30.391 9.12386 10.0806 H 0 **** 0.053
1166 H 31.2813 8.29954 8.80383 H 0 **** 0.053
1167 H 32.0661 8.56505 10.3729 H 0 **** 0.053
1168 H 30.5198 6.60274 7.53124 H 0 **** 0.053
1169 H 31.0294 4.91414 7.6693 H 0 **** 0.053
1170 H 32.1514 6.20235 8.13162 H 0 **** 0.053
1171 C 11.1899 70.4868 78.1669 C.2 0 **** 0
1172 C 10.8681 69.1534 77.9678 C.2 0 **** 0
1173 C 11.5869 68.163 78.6179 C.2 0 **** 0
1174 C 12.6047 68.5206 79.4671 C.2 0 **** 0
1175 C 12.8962 69.8567 79.7138 C.2 0 **** 0
1176 C 12.1781 70.8414 79.0678 C.2 0 **** 0
1177 C 13.4232 67.4599 80.1751 C.3 0 **** -0.106
1178 C 13.2092 65.9999 79.7996 C.2 0 **** 0
1179 C 12.1988 65.6359 78.9537 C.2 0 **** 0
1180 C 11.2512 66.6918 78.3887 C.3 0 **** -0.106
1181 C 12.0428 64.2906 78.6048 C.2 0 **** 0
1182 C 12.9354 63.3309 79.0395 C.2 0 **** 0
1183 C 13.898 63.6836 79.9785 C.2 0 **** 0
1184 C 14.0563 65.0237 80.3519 C.2 0 **** 0
1185 C 15.0538 65.3847 81.245 C.2 0 **** -0.1268
1186 C 16.0241 64.5251 81.7169 C.2 0 **** 0
1187 C 15.9192 63.1873 81.1949 C.2 0 **** 0
1188 C 14.7606 62.751 80.5471 C.2 0 **** 0.042
1189 C 16.9873 62.1397 81.5668 C.3 0 **** 0
1190 C 18.1071 62.551 82.526 C.3 0 **** 0
1191 C 18.0003 63.933 83.2011 C.2 0 **** 0
1192 C 17.0131 64.8798 82.7721 C.2 0 **** 0
1193 C 19.4582 61.851 82.2681 C.3 0 **** -0.106
1194 C 19.8308 61.8548 80.7822 C.3 0 **** -0.053
1195 C 18.7733 61.1009 79.9197 C.3 0 **** -0.053
1196 C 17.3825 60.9985 80.5992 C.3 0 **** -0.106
1197 C 16.9478 66.0799 83.5083 C.2 0 **** 0.042
1198 C 17.8137 66.3176 84.5546 C.2 0 **** 0.052
1199 C 18.7373 65.3646 84.9571 C.2 0 **** 0.052
1200 C 18.7826 64.1527 84.3206 C.2 0 **** 0.042
1201 C 19.6864 65.5925 86.1045 C.2 0 **** 0.367
1202 C 19.5883 66.912 86.7952 C.2 0 **** 0
1203 C 18.6892 67.8307 86.4224 C.2 0 **** 0
1204 C 17.7466 67.6284 85.2961 C.2 0 **** 0.367
1205 C 18.6037 69.1687 87.1202 C.3 0 **** -0.106
1206 C 20.0294 69.616 87.5298 C.3 0 **** -0.106
1207 C 20.7376 68.5226 88.33 C.2 0 **** 0
1208 C 20.5298 67.1752 87.9568 C.2 0 **** 0.2405
1209 N 21.1381 66.1538 88.5967 N.2 0 **** -0.481
1210 C 22.0261 66.4488 89.5408 C.2 0 **** 0.2405
1211 C 22.2555 67.7737 89.9793 C.2 0 **** 0
1212 C 21.5898 68.8063 89.368 C.2 0 **** 0
1213 C 21.8153 70.2545 89.784 C.3 0 **** -0.106
1214 C 22.5103 70.3817 91.1452 C.3 0 **** -0.106
1215 C 23.6891 69.4184 91.2348 C.3 0 **** -0.106
1216 C 23.1791 67.9669 91.1562 C.3 0 **** -0.053
1217 C 24.3552 66.9582 91.0756 C.3 0 **** -0.106
1218 C 23.8186 65.5625 90.9007 C.2 0 **** 0
1219 C 22.6829 65.3345 90.1215 C.2 0 **** 0
1220 C 22.2283 64.0168 89.9344 C.2 0 **** -0.1268
1221 C 22.9262 62.9666 90.4989 C.2 0 **** -0.1268
1222 C 24.0768 63.1812 91.2371 C.2 0 **** 0
1223 C 24.5313 64.4868 91.4209 C.2 0 **** 0
1224 C 12.4464 72.2947 79.3629 C.3 0 **** -0.106
1225 C 13.6177 72.8281 78.5108 C.3 0 **** -0.159
1226 C 10.45 71.5477 77.3943 C.3 0 **** -0.159
1227 C 14.0191 70.1693 80.6758 C.3 0 **** -0.159
1228 C 9.7415 68.7741 77.038 C.3 0 **** -0.159
1229 C 10.877 63.9304 77.6835 C.3 0 **** -0.159
1230 C 12.8023 61.9487 78.4451 C.3 0 **** -0.159
1231 O 14.544 61.4086 80.4126 O.3 0 **** -0.452
1232 C 19.1647 59.6603 79.5842 C.3 0 **** -0.159
1233 C 21.2504 61.2894 80.6546 C.3 0 **** -0.159
1234 O 19.5864 63.1251 84.7349 O.3 0 **** -0.452
1235 O 16.0161 67.0187 83.2061 O.3 0 **** -0.452
1236 O 16.9604 68.468 84.9954 O.2 0 **** -0.419
1237 O 20.4978 64.7661 86.4056 O.2 0 **** -0.419
1238 C 25.818 64.7257 92.193 C.3 0 **** -0.159
1239 C 24.8056 61.9766 91.7983 C.3 0 **** -0.159
1240 H 14.4968 67.6951 79.989 H 0 **** 0.053
1241 H 13.2603 67.5675 81.2755 H 0 **** 0.053
1242 H 10.2308 66.504 78.8018 H 0 **** 0.053
1243 H 11.1798 66.5278 77.2908 H 0 **** 0.053
1244 H 15.0542 66.416 81.5176 H 0 **** 0.1268
1245 H 20.2664 62.323 82.8298 H 0 **** 0.053
1246 H 19.3438 60.8264 82.629 H 0 **** 0.053
1247 H 19.858 62.9066 80.4448 H 0 **** 0.053
1248 H 18.6593 61.659 78.981 H 0 **** 0.053
1249 H 17.3598 60.1065 81.2317 H 0 **** 0.053
1250 H 16.6296 60.8631 79.8134 H 0 **** 0.053
1251 H 18.1468 69.9512 86.4874 H 0 **** 0.053
1252 H 17.9584 69.0622 88.0093 H 0 **** 0.053
1253 H 19.9289 70.5673 88.0802 H 0 **** 0.053
1254 H 20.6037 69.8591 86.6104 H 0 **** 0.053
1255 H 22.4338 70.7625 89.0192 H 0 **** 0.053
1256 H 20.8633 70.8125 89.8403 H 0 **** 0.053
1257 H 21.7931 70.1471 91.9546 H 0 **** 0.053
1258 H 22.8411 71.4233 91.3148 H 0 **** 0.053
1259 H 24.258 69.5663 92.1725 H 0 **** 0.053
1260 H 24.3909 69.6099 90.4028 H 0 **** 0.053
1261 H 22.6124 67.7596 92.0967 H 0 **** 0.053
1262 H 25.0066 67.2286 90.2136 H 0 **** 0.053
1263 H 24.9795 67.0754 91.988 H 0 **** 0.053
1264 H 21.3299 63.8109 89.3393 H 0 **** 0.1268
1265 H 22.5672 61.9363 90.3445 H 0 **** 0.1268
1266 H 12.6673 72.4699 80.4341 H 0 **** 0.053
1267 H 11.5594 72.9279 79.1829 H 0 **** 0.053
1268 H 13.4073 72.7183 77.4342 H 0 **** 0.053
1269 H 14.5538 72.2895 78.7312 H 0 **** 0.053
1270 H 13.805 73.9038 78.702 H 0 **** 0.053
1271 H 10.1046 71.1964 76.4022 H 0 **** 0.053
1272 H 11.0774 72.4307 77.1681 H 0 **** 0.053
1273 H 9.55384 71.9141 77.9421 H 0 **** 0.053
1274 H 14.9922 69.7667 80.3145 H 0 **** 0.053
1275 H 13.8387 69.7276 81.6797 H 0 **** 0.053
1276 H 14.199 71.2405 80.8504 H 0 **** 0.053
1277 H 9.28589 67.7924 77.2721 H 0 **** 0.053
1278 H 10.0818 68.7247 75.9799 H 0 **** 0.053
1279 H 8.89882 69.4903 77.0811 H 0 **** 0.053
1280 H 10.4738 62.9222 77.8847 H 0 **** 0.053
1281 H 11.1686 63.9692 76.6089 H 0 **** 0.053
1282 H 9.99656 64.6022 77.8025 H 0 **** 0.053
1283 H 13.791 61.5047 78.1941 H 0 **** 0.053
1284 H 12.2568 61.9081 77.463 H 0 **** 0.053
1285 H 12.276 61.2256 79.1211 H 0 **** 0.053
1286 H 15.0645 60.9339 81.066 H 0 **** 0.41
1287 H 20.0708 59.619 78.9652 H 0 **** 0.053
1288 H 18.3559 59.1621 79.0167 H 0 **** 0.053
1289 H 19.3361 59.0653 80.5028 H 0 **** 0.053
1290 H 21.9693 61.9072 81.2251 H 0 **** 0.053
1291 H 21.5844 61.2772 79.6063 H 0 **** 0.053
1292 H 21.3166 60.2598 81.0594 H 0 **** 0.053
1293 H 20.1741 63.4612 85.4283 H 0 **** 0.41
1294 H 16.1373 67.7987 83.7685 H 0 **** 0.41
1295 H 26.5083 65.3863 91.6358 H 0 **** 0.053
1296 H 26.3925 63.8014 92.3947 H 0 **** 0.053
1297 H 25.624 65.1946 93.1799 H 0 **** 0.053
1298 H 25.8213 61.8755 91.3741 H 0 **** 0.053
1299 H 24.2795 61.0315 91.5764 H 0 **** 0.053
1300 H 24.9045 62.0305 92.8966 H 0 **** 0.053
1301 C 21.4472 70.4681 33.2188 C.2 0 **** 0
1302 C 22.6286 70.1857 33.8869 C.2 0 **** 0
1303 C 22.9041 68.8871 34.2853 C.2 0 **** 0
1304 C 22.0039 67.8907 33.999 C.2 0 **** 0
1305 C 20.845 68.1573 33.2802 C.2 0 **** 0
1306 C 20.574 69.4494 32.8803 C.2 0 **** 0
1307 C 22.2651 66.4659 34.4451 C.3 0 **** -0.106
1308 C 23.4533 66.192 35.356 C.2 0 **** 0
1309 C 24.3529 67.1785 35.6463 C.2 0 **** 0
1310 C 24.1931 68.5706 35.0397 C.3 0 **** -0.106
1311 C 25.418 66.9043 36.5087 C.2 0 **** 0
1312 C 25.5424 65.6791 37.1313 C.2 0 **** 0
1313 C 24.6888 64.648 36.7577 C.2 0 **** 0
1314 C 23.6252 64.9001 35.8826 C.2 0 **** 0
1315 C 22.7385 63.8859 35.5549 C.2 0 **** -0.1268
1316 C 22.7363 62.636 36.1385 C.2 0 **** 0
1317 C 23.7529 62.461 37.1431 C.2 0 **** 0
1318 C 24.8194 63.3562 37.2581 C.2 0 **** 0.042
1319 C 23.8153 61.1438 37.9413 C.3 0 **** 0
1320 C 22.8127 60.0387 37.6005 C.3 0 **** 0
1321 C 21.9173 60.2409 36.3617 C.2 0 **** 0
1322 C 21.8701 61.5091 35.6952 C.2 0 **** 0
1323 C 22.3897 59.1677 38.8023 C.3 0 **** -0.106
1324 C 22.0418 60.0154 40.0299 C.3 0 **** -0.053
1325 C 23.2583 60.8644 40.509 C.3 0 **** -0.053
1326 C 24.3208 61.0989 39.4033 C.3 0 **** -0.106
1327 C 21.0829 61.564 34.5274 C.2 0 **** 0.042
1328 C 20.3857 60.4579 34.09 C.2 0 **** 0.052
1329 C 20.479 59.2404 34.7473 C.2 0 **** 0.052
1330 C 21.294 59.1209 35.8416 C.2 0 **** 0.042
1331 C 19.7381 58.0132 34.2848 C.2 0 **** 0.367
1332 C 18.8833 58.1717 33.0714 C.2 0 **** 0
1333 C 18.8004 59.3394 32.4229 C.2 0 **** 0
1334 C 19.5193 60.5599 32.8606 C.2 0 **** 0.367
1335 C 17.9237 59.4944 31.2014 C.3 0 **** -0.106
1336 C 16.6529 58.6262 31.379 C.3 0 **** -0.106
1337 C 17.0197 57.1824 31.7229 C.2 0 **** 0
1338 C 18.1225 56.9544 32.5772 C.2 0 **** 0.2405
1339 N 18.4943 55.711 32.9488 N.2 0 **** -0.481
1340 C 17.7337 54.6908 32.5648 C.2 0 **** 0.2405
1341 C 16.6367 54.8507 31.6865 C.2 0 **** 0
1342 C 16.2971 56.1105 31.2615 C.2 0 **** 0
1343 C 15.1113 56.3438 30.3338 C.3 0 **** -0.106
1344 C 14.6299 55.0592 29.6481 C.3 0 **** -0.106
1345 C 14.5378 53.9184 30.656 C.3 0 **** -0.106
1346 C 15.9403 53.6009 31.2085 C.3 0 **** -0.053
1347 C 15.8727 52.5614 32.3584 C.3 0 **** -0.106
1348 C 17.2465 52.3516 32.9373 C.2 0 **** 0
1349 C 18.1371 53.4209 33.0492 C.2 0 **** 0
1350 C 19.3975 53.2097 33.6365 C.2 0 **** -0.1268
1351 C 19.7252 51.9575 34.1194 C.2 0 **** -0.1268
1352 C 18.8317 50.9031 34.0505 C.2 0 **** 0
1353 C 17.5801 51.1111 33.4716 C.2 0 **** 0
1354 C 19.3479 69.747 32.0552 C.3 0 **** -0.106
1355 C 18.109 69.9478 32.9534 C.3 0 **** -0.159
1356 C 21.1161 71.8936 32.8629 C.3 0 **** -0.159
1357 C 19.9123 67.004 32.9901 C.3 0 **** -0.159
1358 C 23.6158 71.2839 34.1963 C.3 0 **** -0.159
1359 C 26.4137 68.0285 36.7732 C.3 0 **** -0.159
1360 C 26.6073 65.5523 38.1951 C.3 0 **** -0.159
1361 O 25.9392 62.9674 37.9379 O.3 0 **** -0.452
1362 C 24.0242 60.2403 41.6773 C.3 0 **** -0.159
1363 C 21.4819 59.0751 41.1038 C.3 0 **** -0.159
1364 O 21.523 57.9274 36.4712 O.3 0 **** -0.452
1365 O 21.0105 62.7094 33.8039 O.3 0 **** -0.452
1366 O 19.4207 61.5798 32.2581 O.2 0 **** -0.419
1367 O 19.8079 56.9859 34.8944 O.2 0 **** -0.419
1368 C 16.5784 49.9692 33.4329 C.3 0 **** -0.159
1369 C 19.251 49.5668 34.63 C.3 0 **** -0.159
1370 H 21.3515 66.1173 34.9801 H 0 **** 0.053
1371 H 22.3649 65.8262 33.5344 H 0 **** 0.053
1372 H 25.0497 68.7526 34.3464 H 0 **** 0.053
1373 H 24.2935 69.3114 35.8634 H 0 **** 0.053
1374 H 22.002 64.1572 34.8327 H 0 **** 0.1268
1375 H 21.5301 58.5408 38.5583 H 0 **** 0.053
1376 H 23.2385 58.5151 39.0186 H 0 **** 0.053
1377 H 21.234 60.7113 39.7401 H 0 **** 0.053
1378 H 22.8701 61.8406 40.8281 H 0 **** 0.053
1379 H 25.0271 60.2639 39.4048 H 0 **** 0.053
1380 H 24.8831 62.005 39.659 H 0 **** 0.053
1381 H 17.6236 60.5429 31.0221 H 0 **** 0.053
1382 H 18.4952 59.1714 30.314 H 0 **** 0.053
1383 H 16.0602 58.7197 30.4527 H 0 **** 0.053
1384 H 16.0279 59.0709 32.1827 H 0 **** 0.053
1385 H 14.2723 56.7741 30.9138 H 0 **** 0.053
1386 H 15.3544 57.0753 29.5421 H 0 **** 0.053
1387 H 15.3391 54.7744 28.8478 H 0 **** 0.053
1388 H 13.6545 55.2264 29.1545 H 0 **** 0.053
1389 H 14.101 53.0113 30.1966 H 0 **** 0.053
1390 H 13.8693 54.2084 31.4869 H 0 **** 0.053
1391 H 16.5352 53.1533 30.3752 H 0 **** 0.053
1392 H 15.1789 52.9356 33.1453 H 0 **** 0.053
1393 H 15.419 51.6281 31.9597 H 0 **** 0.053
1394 H 20.1222 54.0289 33.7229 H 0 **** 0.1268
1395 H 20.7128 51.7999 34.5822 H 0 **** 0.1268
1396 H 19.1359 68.948 31.3183 H 0 **** 0.053
1397 H 19.4772 70.6437 31.4233 H 0 **** 0.053
1398 H 18.2652 70.7735 33.6671 H 0 **** 0.053
1399 H 17.8805 69.0384 33.5332 H 0 **** 0.053
1400 H 17.2071 70.1932 32.3575 H 0 **** 0.053
1401 H 21.5556 72.6283 33.5641 H 0 **** 0.053
1402 H 20.031 72.1017 32.8901 H 0 **** 0.053
1403 H 21.4536 72.1558 31.839 H 0 **** 0.053
1404 H 19.5228 66.5478 33.9279 H 0 **** 0.053
1405 H 20.4194 66.1949 32.4218 H 0 **** 0.053
1406 H 19.018 67.264 32.4048 H 0 **** 0.053
1407 H 24.6563 70.9253 34.3101 H 0 **** 0.053
1408 H 23.3544 71.8208 35.1335 H 0 **** 0.053
1409 H 23.6736 72.0365 33.3936 H 0 **** 0.053
1410 H 27.435 67.6495 36.953 H 0 **** 0.053
1411 H 26.1201 68.6473 37.652 H 0 **** 0.053
1412 H 26.5273 68.7258 35.9121 H 0 **** 0.053
1413 H 26.2447 64.9894 39.0838 H 0 **** 0.053
1414 H 26.9471 66.5262 38.642 H 0 **** 0.053
1415 H 27.5355 65.0379 37.8333 H 0 **** 0.053
1416 H 25.9739 62.0077 37.974 H 0 **** 0.41
1417 H 23.4001 60.1633 42.5777 H 0 **** 0.053
1418 H 24.9031 60.8597 41.9385 H 0 **** 0.053
1419 H 24.3992 59.2303 41.4193 H 0 **** 0.053
1420 H 20.577 58.5564 40.7351 H 0 **** 0.053
1421 H 21.1989 59.6275 42.0124 H 0 **** 0.053
1422 H 22.2142 58.2905 41.38 H 0 **** 0.053
1423 H 20.9229 57.2663 36.0946 H 0 **** 0.41
1424 H 20.3968 62.5956 33.0625 H 0 **** 0.41
1425 H 15.5919 50.282 33.8232 H 0 **** 0.053
1426 H 16.8756 49.0973 34.0464 H 0 **** 0.053
1427 H 16.4287 49.5888 32.4012 H 0 **** 0.053
1428 H 18.6082 49.2654 35.4772 H 0 **** 0.053
1429 H 20.2856 49.5868 35.0154 H 0 **** 0.053
1430 H 19.2123 48.7611 33.8762 H 0 **** 0.053
1431 C 22.3158 57.9955 67.5902 C.2 0 **** 0
1432 C 21.9348 59.3122 67.3851 C.2 0 **** 0
1433 C 22.2863 59.9592 66.2118 C.2 0 **** 0
1434 C 22.9942 59.2762 65.2542 C.2 0 **** 0
1435 C 23.3325 57.94 65.4304 C.2 0 **** 0
1436 C 22.9821 57.297 66.5993 C.2 0 **** 0
1437 C 23.4115 59.9631 63.9692 C.3 0 **** -0.106
1438 C 23.1904 61.4628 63.8417 C.2 0 **** 0
1439 C 22.5014 62.1494 64.8004 C.2 0 **** 0
1440 C 21.8947 61.4157 65.992 C.3 0 **** -0.106
1441 C 22.3691 63.5361 64.6904 C.2 0 **** 0
1442 C 22.9396 64.2314 63.6399 C.2 0 **** 0
1443 C 23.5368 63.5175 62.6056 C.2 0 **** 0
1444 C 23.6928 62.1312 62.7118 C.2 0 **** 0
1445 C 24.3582 61.4293 61.7186 C.2 0 **** -0.1268
1446 C 25.0157 62.0177 60.658 C.2 0 **** 0
1447 C 24.9475 63.4549 60.6544 C.2 0 **** 0
1448 C 24.0394 64.1371 61.4674 C.2 0 **** 0.042
1449 C 25.7097 64.2535 59.5792 C.3 0 **** 0
1450 C 26.4882 63.4773 58.5139 C.3 0 **** 0
1451 C 26.3124 61.9461 58.4728 C.2 0 **** 0
1452 C 25.632 61.2617 59.533 C.2 0 **** 0
1453 C 27.7659 64.1843 58.0109 C.3 0 **** -0.106
1454 C 28.6087 64.7367 59.1648 C.3 0 **** -0.053
1455 C 27.8211 65.7911 60.0003 C.3 0 **** -0.053
1456 C 26.2807 65.6652 59.8598 C.3 0 **** -0.106
1457 C 25.4594 59.8737 59.3615 C.2 0 **** 0.042
1458 C 25.9489 59.2323 58.2439 C.2 0 **** 0.052
1459 C 26.5762 59.9341 57.2258 C.2 0 **** 0.052
1460 C 26.699 61.2951 57.3154 C.2 0 **** 0.042
1461 C 27.1105 59.26 55.9899 C.2 0 **** 0.367
1462 C 26.9356 57.7799 55.9126 C.2 0 **** 0
1463 C 26.3172 57.0979 56.8838 C.2 0 **** 0
1464 C 25.784 57.7406 58.1084 C.2 0 **** 0.367
1465 C 26.1535 55.5972 56.803 C.3 0 **** -0.106
1466 C 27.4027 54.9883 56.1178 C.3 0 **** -0.106
1467 C 27.6819 55.6738 54.7801 C.2 0 **** 0
1468 C 27.4631 57.0669 54.68 C.2 0 **** 0.2405
1469 N 27.71 57.7494 53.5418 N.2 0 **** -0.481
1470 C 28.2622 57.0921 52.5269 C.2 0 **** 0.2405
1471 C 28.4765 55.6944 52.5546 C.2 0 **** 0
1472 C 28.1677 54.992 53.6923 C.2 0 **** 0
1473 C 28.3991 53.4888 53.7855 C.3 0 **** -0.106
1474 C 28.6129 52.8328 52.4157 C.3 0 **** -0.106
1475 C 29.5831 53.6561 51.5751 C.3 0 **** -0.106
1476 C 28.9732 55.0415 51.2886 C.3 0 **** -0.053
1477 C 29.9923 55.9718 50.5791 C.3 0 **** -0.106
1478 C 29.3954 57.343 50.4053 C.2 0 **** 0
1479 C 28.5643 57.8821 51.3891 C.2 0 **** 0
1480 C 28.0569 59.1836 51.2258 C.2 0 **** -0.1268
1481 C 28.4098 59.9195 50.1111 C.2 0 **** -0.1268
1482 C 29.2667 59.4079 49.1525 C.2 0 **** 0
1483 C 29.7738 58.1188 49.3143 C.2 0 **** 0
1484 C 23.295 55.8347 66.7844 C.3 0 **** -0.106
1485 C 24.7331 55.6347 67.3077 C.3 0 **** -0.159
1486 C 21.9954 57.3311 68.9039 C.3 0 **** -0.159
1487 C 24.1017 57.2547 64.3247 C.3 0 **** -0.159
1488 C 21.1468 60.0492 68.4405 C.3 0 **** -0.159
1489 C 21.5068 64.2494 65.7362 C.3 0 **** -0.159
1490 C 22.8299 65.7374 63.6731 C.3 0 **** -0.159
1491 O 23.7399 65.4354 61.1745 O.3 0 **** -0.452
1492 C 28.1433 67.2395 59.6262 C.3 0 **** -0.159
1493 C 29.9202 65.2688 58.5741 C.3 0 **** -0.159
1494 O 27.2083 62.0642 56.3042 O.3 0 **** -0.452
1495 O 24.7938 59.1458 60.2932 O.3 0 **** -0.452
1496 O 25.2377 57.1007 58.9478 O.2 0 **** -0.419
1497 O 27.6827 59.8852 55.1451 O.2 0 **** -0.419
1498 C 30.7497 57.5681 48.2878 C.3 0 **** -0.159
1499 C 29.6326 60.2867 47.9731 C.3 0 **** -0.159
1500 H 24.5051 59.7855 63.8445 H 0 **** 0.053
1501 H 22.9066 59.4506 63.1138 H 0 **** 0.053
1502 H 20.7834 61.4654 65.914 H 0 **** 0.053
1503 H 22.1676 61.983 66.9091 H 0 **** 0.053
1504 H 24.3799 60.3724 61.8598 H 0 **** 0.1268
1505 H 28.3885 63.5113 57.4184 H 0 **** 0.053
1506 H 27.4285 64.9967 57.3634 H 0 **** 0.053
1507 H 28.8605 63.8928 59.832 H 0 **** 0.053
1508 H 28.0865 65.6365 61.0546 H 0 **** 0.053
1509 H 25.9535 66.2499 58.9953 H 0 **** 0.053
1510 H 25.8224 66.1113 60.7501 H 0 **** 0.053
1511 H 26.0208 55.1283 57.795 H 0 **** 0.053
1512 H 25.2426 55.3733 56.2213 H 0 **** 0.053
1513 H 27.2296 53.9021 56.0265 H 0 **** 0.053
1514 H 28.2723 55.098 56.8004 H 0 **** 0.053
1515 H 29.2875 53.2937 54.4164 H 0 **** 0.053
1516 H 27.549 52.9777 54.2724 H 0 **** 0.053
1517 H 27.6469 52.7606 51.8807 H 0 **** 0.053
1518 H 28.98 51.7965 52.536 H 0 **** 0.053
1519 H 29.8213 53.1462 50.6222 H 0 **** 0.053
1520 H 30.5376 53.7769 52.1191 H 0 **** 0.053
1521 H 28.1078 54.8899 50.5981 H 0 **** 0.053
1522 H 30.9181 56.0326 51.1954 H 0 **** 0.053
1523 H 30.2874 55.4982 49.6175 H 0 **** 0.053
1524 H 27.3899 59.6256 51.9766 H 0 **** 0.1268
1525 H 28.0123 60.9403 49.9915 H 0 **** 0.1268
1526 H 23.1662 55.2583 65.8476 H 0 **** 0.053
1527 H 22.5928 55.3433 67.4809 H 0 **** 0.053
1528 H 24.8811 56.1531 68.2695 H 0 **** 0.053
1529 H 25.4789 56.0239 66.5954 H 0 **** 0.053
1530 H 24.9632 54.5629 67.4722 H 0 **** 0.053
1531 H 21.9633 58.044 69.751 H 0 **** 0.053
1532 H 22.7552 56.5848 69.2044 H 0 **** 0.053
1533 H 21.0138 56.8085 68.8783 H 0 **** 0.053
1534 H 25.0897 57.7384 64.1529 H 0 **** 0.053
1535 H 23.5531 57.2849 63.3587 H 0 **** 0.053
1536 H 24.33 56.1938 64.5051 H 0 **** 0.053
1537 H 20.5353 60.8799 68.0378 H 0 **** 0.053
1538 H 21.8121 60.4884 69.217 H 0 **** 0.053
1539 H 20.421 59.3945 68.9596 H 0 **** 0.053
1540 H 20.947 65.107 65.3171 H 0 **** 0.053
1541 H 22.1113 64.6254 66.5889 H 0 **** 0.053
1542 H 20.7043 63.6026 66.1651 H 0 **** 0.053
1543 H 23.7806 66.2312 63.3752 H 0 **** 0.053
1544 H 22.6263 66.171 64.6888 H 0 **** 0.053
1545 H 22.0255 66.1395 63.0025 H 0 **** 0.053
1546 H 23.9473 65.606 60.2525 H 0 **** 0.41
1547 H 29.1934 67.4885 59.8301 H 0 **** 0.053
1548 H 27.5197 67.9389 60.2147 H 0 **** 0.053
1549 H 27.935 67.4348 58.5558 H 0 **** 0.053
1550 H 30.4722 64.4607 58.0582 H 0 **** 0.053
1551 H 30.5796 65.6705 59.3581 H 0 **** 0.053
1552 H 29.7364 66.0641 57.8245 H 0 **** 0.053
1553 H 27.5591 61.4711 55.6231 H 0 **** 0.41
1554 H 24.8025 58.2085 60.0494 H 0 **** 0.41
1555 H 31.6532 57.151 48.7706 H 0 **** 0.053
1556 H 31.1206 58.3293 47.5752 H 0 **** 0.053
1557 H 30.2916 56.7638 47.6756 H 0 **** 0.053
1558 H 30.7141 60.5138 47.9487 H 0 **** 0.053
1559 H 29.1104 61.2592 48.0012 H 0 **** 0.053
1560 H 29.367 59.8153 47.0107 H 0 **** 0.053
1561 C 26.6385 40.3633 93.5232 C.2 0 **** 0
1562 C 27.6579 40.5041 94.4519 C.2 0 **** 0
1563 C 28.6591 39.5494 94.5311 C.2 0 **** 0
1564 C 28.6343 38.4785 93.6725 C.2 0 **** 0
1565 C 27.6463 38.3603 92.7023 C.2 0 **** 0
1566 C 26.6516 39.3128 92.6232 C.2 0 **** 0
1567 C 29.7025 37.4063 93.75 C.3 0 **** -0.106
1568 C 30.7001 37.4501 94.8994 C.2 0 **** 0
1569 C 30.7304 38.5125 95.7591 C.2 0 **** 0
1570 C 29.7742 39.6871 95.5641 C.3 0 **** -0.106
1571 C 31.6394 38.5133 96.8219 C.2 0 **** 0
1572 C 32.457 37.4273 97.0645 C.2 0 **** 0
1573 C 32.4983 36.395 96.1343 C.2 0 **** 0
1574 C 31.607 36.3875 95.0545 C.2 0 **** 0
1575 C 31.6083 35.3298 94.1579 C.2 0 **** -0.1268
1576 C 32.3504 34.1775 94.3149 C.2 0 **** 0
1577 C 33.1443 34.1566 95.5159 C.2 0 **** 0
1578 C 33.3761 35.3214 96.2517 C.2 0 **** 0.042
1579 C 33.959 32.8958 95.8674 C.3 0 **** 0
1580 C 33.9309 31.7159 94.8925 C.3 0 **** 0
1581 C 33.2341 31.9264 93.5334 C.2 0 **** 0
1582 C 32.4504 33.1018 93.2901 C.2 0 **** 0
1583 C 34.0521 30.3305 95.5622 C.3 0 **** -0.106
1584 C 33.1301 30.1998 96.7785 C.3 0 **** -0.053
1585 C 33.4728 31.2512 97.8765 C.3 0 **** -0.053
1586 C 34.237 32.4868 97.3337 C.3 0 **** -0.106
1587 C 31.9239 33.2344 91.9896 C.2 0 **** 0.042
1588 C 32.1384 32.2625 91.0355 C.2 0 **** 0.052
1589 C 32.9258 31.1522 91.3015 C.2 0 **** 0.052
1590 C 33.5224 31.0218 92.5275 C.2 0 **** 0.042
1591 C 33.1874 30.082 90.2744 C.2 0 **** 0.367
1592 C 32.5471 30.2719 88.9395 C.2 0 **** 0
1593 C 31.7985 31.3482 88.6704 C.2 0 **** 0
1594 C 31.527 32.4131 89.6657 C.2 0 **** 0.367
1595 C 31.1446 31.5276 87.3193 C.3 0 **** -0.106
1596 C 30.7124 30.1409 86.7801 C.3 0 **** -0.106
1597 C 31.8829 29.1575 86.7974 C.2 0 **** 0
1598 C 32.7905 29.212 87.8796 C.2 0 **** 0.2405
1599 N 33.8353 28.3629 87.98 N.2 0 **** -0.481
1600 C 33.9414 27.3936 87.0766 C.2 0 **** 0.2405
1601 C 33.0838 27.3043 85.9556 C.2 0 **** 0
1602 C 32.0594 28.2076 85.8225 C.2 0 **** 0
1603 C 31.0917 28.1444 84.6476 C.3 0 **** -0.106
1604 C 31.6091 27.2731 83.4964 C.3 0 **** -0.106
1605 C 32.173 25.9611 84.0319 C.3 0 **** -0.106
1606 C 33.3954 26.2487 84.9241 C.3 0 **** -0.053
1607 C 33.8999 24.9591 85.6239 C.3 0 **** -0.106
1608 C 35.0293 25.2965 86.5604 C.2 0 **** 0
1609 C 35.0159 26.4917 87.2818 C.2 0 **** 0
1610 C 36.0582 26.7625 88.1863 C.2 0 **** -0.1268
1611 C 37.0632 25.8324 88.3694 C.2 0 **** -0.1268
1612 C 37.0611 24.6272 87.6894 C.2 0 **** 0
1613 C 36.0264 24.3551 86.7948 C.2 0 **** 0
1614 C 25.6023 39.2277 91.5446 C.3 0 **** -0.106
1615 C 24.4439 38.2999 91.968 C.3 0 **** -0.159
1616 C 25.5163 41.3685 93.5016 C.3 0 **** -0.159
1617 C 27.6982 37.1619 91.7828 C.3 0 **** -0.159
1618 C 27.6779 41.6904 95.3845 C.3 0 **** -0.159
1619 C 31.6575 39.7397 97.7347 C.3 0 **** -0.159
1620 C 33.2517 37.4381 98.3489 C.3 0 **** -0.159
1621 O 34.4167 35.3481 97.1371 O.3 0 **** -0.452
1622 C 34.3489 30.7004 99.001 C.3 0 **** -0.159
1623 C 33.2025 28.7482 97.2682 C.3 0 **** -0.159
1624 O 34.4019 30.0153 92.8226 O.3 0 **** -0.452
1625 O 31.2064 34.3347 91.65 O.3 0 **** -0.452
1626 O 30.8585 33.3559 89.3881 O.2 0 **** -0.419
1627 O 33.8413 29.1164 90.5431 O.2 0 **** -0.419
1628 C 35.994 23.015 86.0791 C.3 0 **** -0.159
1629 C 38.1801 23.6435 87.967 C.3 0 **** -0.159
1630 H 29.1779 36.4243 93.8049 H 0 **** 0.053
1631 H 30.2728 37.4094 92.789 H 0 **** 0.053
1632 H 30.3767 40.5897 95.3006 H 0 **** 0.053
1633 H 29.3002 39.9029 96.5471 H 0 **** 0.053
1634 H 30.9399 35.4449 93.3347 H 0 **** 0.1268
1635 H 33.819 29.5264 94.8619 H 0 **** 0.053
1636 H 35.0968 30.229 95.8645 H 0 **** 0.053
1637 H 32.0954 30.3873 96.4389 H 0 **** 0.053
1638 H 32.5236 31.5934 98.3098 H 0 **** 0.053
1639 H 35.3097 32.2741 97.3416 H 0 **** 0.053
1640 H 34.0628 33.3232 98.0213 H 0 **** 0.053
1641 H 30.2621 32.1919 87.3576 H 0 **** 0.053
1642 H 31.8701 32.0025 86.6364 H 0 **** 0.053
1643 H 30.2863 30.2988 85.7743 H 0 **** 0.053
1644 H 29.8759 29.7616 87.4052 H 0 **** 0.053
1645 H 30.1219 27.7379 84.994 H 0 **** 0.053
1646 H 30.8832 29.1499 84.2394 H 0 **** 0.053
1647 H 32.4073 27.8102 82.9495 H 0 **** 0.053
1648 H 30.8033 27.0831 82.7629 H 0 **** 0.053
1649 H 32.4613 25.282 83.2069 H 0 **** 0.053
1650 H 31.3992 25.436 84.621 H 0 **** 0.053
1651 H 34.2133 26.6229 84.261 H 0 **** 0.053
1652 H 33.0573 24.5001 86.1898 H 0 **** 0.053
1653 H 34.1862 24.2248 84.8398 H 0 **** 0.053
1654 H 36.0787 27.6999 88.7563 H 0 **** 0.1268
1655 H 37.8729 26.0487 89.0849 H 0 **** 0.1268
1656 H 26.0196 38.8714 90.5827 H 0 **** 0.053
1657 H 25.1871 40.2183 91.2873 H 0 **** 0.053
1658 H 23.9697 38.6564 92.8973 H 0 **** 0.053
1659 H 24.796 37.2698 92.1416 H 0 **** 0.053
1660 H 23.6539 38.2515 91.192 H 0 **** 0.053
1661 H 25.3106 41.8062 94.498 H 0 **** 0.053
1662 H 24.5498 40.9265 93.1931 H 0 **** 0.053
1663 H 25.7263 42.2135 92.8095 H 0 **** 0.053
1664 H 27.6044 36.2081 92.3493 H 0 **** 0.053
1665 H 28.6556 37.1128 91.2208 H 0 **** 0.053
1666 H 26.9038 37.1233 91.0228 H 0 **** 0.053
1667 H 28.6902 41.948 95.7515 H 0 **** 0.053
1668 H 27.0464 41.5158 96.2838 H 0 **** 0.053
1669 H 27.3129 42.6156 94.8991 H 0 **** 0.053
1670 H 32.6611 39.9473 98.1459 H 0 **** 0.053
1671 H 30.9567 39.6291 98.5937 H 0 **** 0.053
1672 H 31.3788 40.6832 97.2123 H 0 **** 0.053
1673 H 33.2504 36.4446 98.8497 H 0 **** 0.053
1674 H 32.8472 38.1177 99.1476 H 0 **** 0.053
1675 H 34.323 37.7352 98.2039 H 0 **** 0.053
1676 H 35.0518 34.6658 96.9048 H 0 **** 0.41
1677 H 33.8352 29.9053 99.5548 H 0 **** 0.053
1678 H 34.5968 31.5015 99.7214 H 0 **** 0.053
1679 H 35.3044 30.299 98.6114 H 0 **** 0.053
1680 H 32.877 28.0516 96.4728 H 0 **** 0.053
1681 H 32.5489 28.585 98.1386 H 0 **** 0.053
1682 H 34.237 28.4627 97.5449 H 0 **** 0.053
1683 H 34.3982 29.3848 92.0871 H 0 **** 0.41
1684 H 30.8747 34.2483 90.7439 H 0 **** 0.41
1685 H 35.0041 22.5301 86.1715 H 0 **** 0.053
1686 H 36.72 22.281 86.4782 H 0 **** 0.053
1687 H 36.2186 23.1213 84.9976 H 0 **** 0.053
1688 H 37.8015 22.7035 88.4087 H 0 **** 0.053
1689 H 38.9208 24.0464 88.6799 H 0 **** 0.053
1690 H 38.7359 23.383 87.0493 H 0 **** 0.053
1691 C 41.3045 90.4222 4.75551 C.2 0 **** 0
1692 C 41.057 89.0719 4.56381 C.2 0 **** 0
1693 C 42.1131 88.1935 4.38184 C.2 0 **** 0
1694 C 43.3985 88.6749 4.40907 C.2 0 **** 0
1695 C 43.6557 90.0181 4.65603 C.2 0 **** 0
1696 C 42.6034 90.8909 4.83949 C.2 0 **** 0
1697 C 44.5732 87.7426 4.19118 C.3 0 **** -0.106
1698 C 44.2973 86.3039 3.7762 C.2 0 **** 0
1699 C 43.0201 85.8173 3.74574 C.2 0 **** 0
1700 C 41.848 86.7082 4.15153 C.3 0 **** -0.106
1701 C 42.7942 84.4996 3.33533 C.2 0 **** 0
1702 C 43.8292 83.702 2.88881 C.2 0 **** 0
1703 C 45.1353 84.1607 3.01638 C.2 0 **** 0
1704 C 45.3799 85.4721 3.44199 C.2 0 **** 0
1705 C 46.6798 85.9494 3.51497 C.2 0 **** -0.1268
1706 C 47.7875 85.2623 3.06334 C.2 0 **** 0
1707 C 47.4812 83.9756 2.49403 C.2 0 **** 0
1708 C 46.2364 83.3728 2.6933 C.2 0 **** 0.042
1709 C 48.6102 83.132 1.86935 C.3 0 **** 0
1710 C 50.0395 83.6781 1.91951 C.3 0 **** 0
1711 C 50.2904 84.9535 2.74865 C.2 0 **** 0
1712 C 49.1913 85.719 3.25928 C.2 0 **** 0
1713 C 50.9182 83.2804 0.714499 C.3 0 **** -0.106
1714 C 50.1868 83.4764 -0.617173 C.3 0 **** -0.053
1715 C 48.8998 82.6006 -0.703186 C.3 0 **** -0.053
1716 C 48.3504 82.1724 0.683218 C.3 0 **** -0.106
1717 C 49.5305 86.8204 4.07064 C.2 0 **** 0.042
1718 C 50.8488 87.1389 4.31878 C.2 0 **** 0.052
1719 C 51.884 86.357 3.82898 C.2 0 **** 0.052
1720 C 51.5987 85.2325 3.10075 C.2 0 **** 0.042
1721 C 53.3325 86.6745 4.09414 C.2 0 **** 0.367
1722 C 53.606 87.8896 4.91702 C.2 0 **** 0
1723 C 52.612 88.6403 5.4062 C.2 0 **** 0
1724 C 51.18 88.3476 5.1568 C.2 0 **** 0.367
1725 C 52.8978 89.8755 6.22933 C.3 0 **** -0.106
1726 C 54.1765 90.5601 5.68472 C.3 0 **** -0.106
1727 C 55.3356 89.5668 5.60003 C.2 0 **** 0
1728 C 55.0553 88.2391 5.20419 C.2 0 **** 0.2405
1729 N 56.0266 87.3098 5.07996 N.2 0 **** -0.481
1730 C 57.2868 87.6967 5.2498 C.2 0 **** 0.2405
1731 C 57.629 89.0014 5.67522 C.2 0 **** 0
1732 C 56.6341 89.9285 5.85916 C.2 0 **** 0
1733 C 56.947 91.3549 6.29404 C.3 0 **** -0.106
1734 C 58.3631 91.5069 6.86283 C.3 0 **** -0.106
1735 C 59.3747 90.7902 5.97465 C.3 0 **** -0.106
1736 C 59.0819 89.2777 5.97212 C.3 0 **** -0.053
1737 C 59.9808 88.5297 4.95231 C.3 0 **** -0.106
1738 C 59.5983 87.0742 4.9072 C.2 0 **** 0
1739 C 58.2619 86.6905 5.03351 C.2 0 **** 0
1740 C 57.9241 85.3284 4.94101 C.2 0 **** -0.1268
1741 C 58.9125 84.3942 4.69845 C.2 0 **** -0.1268
1742 C 60.2333 84.771 4.52976 C.2 0 **** 0
1743 C 60.5699 86.1216 4.61763 C.2 0 **** 0
1744 C 42.8655 92.3402 5.15958 C.3 0 **** -0.106
1745 C 43.0979 93.1598 3.87269 C.3 0 **** -0.159
1746 C 40.1437 91.3752 4.87539 C.3 0 **** -0.159
1747 C 45.0985 90.4672 4.68877 C.3 0 **** -0.159
1748 C 39.6395 88.5541 4.54499 C.3 0 **** -0.159
1749 C 41.352 83.9925 3.352 C.3 0 **** -0.159
1750 C 43.458 82.3723 2.27607 C.3 0 **** -0.159
1751 O 46.1108 82.0285 2.48277 O.3 0 **** -0.452
1752 C 49.092 81.2967 -1.4804 C.3 0 **** -0.159
1753 C 51.1914 83.2132 -1.74545 C.3 0 **** -0.159
1754 O 52.5612 84.3535 2.6828 O.3 0 **** -0.452
1755 O 48.5584 87.5802 4.63466 O.3 0 **** -0.452
1756 O 50.3249 89.0387 5.60846 O.2 0 **** -0.419
1757 O 54.2055 86.0033 3.62596 O.2 0 **** -0.419
1758 C 62.0109 86.5462 4.38948 C.3 0 **** -0.159
1759 C 61.2562 83.6922 4.23509 C.3 0 **** -0.159
1760 H 45.2109 88.1988 3.39901 H 0 **** 0.053
1761 H 45.187 87.7279 5.125 H 0 **** 0.053
1762 H 41.3976 86.2914 5.08462 H 0 **** 0.053
1763 H 41.0696 86.6221 3.36153 H 0 **** 0.053
1764 H 46.7687 86.9355 3.91202 H 0 **** 0.1268
1765 H 51.8455 83.8557 0.689183 H 0 **** 0.053
1766 H 51.1725 82.2278 0.857599 H 0 **** 0.053
1767 H 49.8821 84.5365 -0.680978 H 0 **** 0.053
1768 H 48.131 83.1986 -1.21031 H 0 **** 0.053
1769 H 48.8429 81.2455 0.990627 H 0 **** 0.053
1770 H 47.2811 81.9552 0.572936 H 0 **** 0.053
1771 H 52.064 90.6009 6.21334 H 0 **** 0.053
1772 H 53.0359 89.5733 7.282 H 0 **** 0.053
1773 H 54.3871 91.426 6.33576 H 0 **** 0.053
1774 H 53.9534 90.984 4.68239 H 0 **** 0.053
1775 H 56.8363 92.034 5.4268 H 0 **** 0.053
1776 H 56.237 91.7084 7.06338 H 0 **** 0.053
1777 H 58.4065 91.0718 7.87931 H 0 **** 0.053
1778 H 58.624 92.5762 6.97042 H 0 **** 0.053
1779 H 60.4108 90.9714 6.31888 H 0 **** 0.053
1780 H 59.3086 91.1818 4.94325 H 0 **** 0.053
1781 H 59.3216 88.8883 6.99175 H 0 **** 0.053
1782 H 59.8502 88.9909 3.94689 H 0 **** 0.053
1783 H 61.043 88.6939 5.23608 H 0 **** 0.053
1784 H 56.8838 84.9981 5.05204 H 0 **** 0.1268
1785 H 58.6404 83.329 4.62292 H 0 **** 0.1268
1786 H 43.7345 92.4687 5.83404 H 0 **** 0.053
1787 H 42.0365 92.7987 5.72745 H 0 **** 0.053
1788 H 42.2271 93.0961 3.1994 H 0 **** 0.053
1789 H 43.9801 92.7985 3.3194 H 0 **** 0.053
1790 H 43.2653 94.2326 4.09564 H 0 **** 0.053
1791 H 39.2536 91.0434 4.30601 H 0 **** 0.053
1792 H 40.3691 92.3794 4.46883 H 0 **** 0.053
1793 H 39.8245 91.5131 5.93196 H 0 **** 0.053
1794 H 45.6022 90.2942 3.71121 H 0 **** 0.053
1795 H 45.685 89.9197 5.45769 H 0 **** 0.053
1796 H 45.2491 91.5354 4.90402 H 0 **** 0.053
1797 H 39.5548 87.4867 4.82635 H 0 **** 0.053
1798 H 39.1789 88.6576 3.53751 H 0 **** 0.053
1799 H 38.9866 89.085 5.26376 H 0 **** 0.053
1800 H 41.2852 82.912 3.56976 H 0 **** 0.053
1801 H 40.8361 84.175 2.38152 H 0 **** 0.053
1802 H 40.7267 84.4668 4.14241 H 0 **** 0.053
1803 H 44.0528 82.1534 1.36159 H 0 **** 0.053
1804 H 42.3995 82.3045 1.90418 H 0 **** 0.053
1805 H 43.5961 81.5079 2.97652 H 0 **** 0.053
1806 H 46.978 81.6168 2.51978 H 0 **** 0.41
1807 H 49.3407 81.484 -2.53355 H 0 **** 0.053
1808 H 48.1627 80.6962 -1.46404 H 0 **** 0.053
1809 H 49.8926 80.6753 -1.03283 H 0 **** 0.053
1810 H 52.0459 83.9126 -1.6783 H 0 **** 0.053
1811 H 50.7289 83.3508 -2.73432 H 0 **** 0.053
1812 H 51.6078 82.1877 -1.68897 H 0 **** 0.053
1813 H 53.4287 84.7416 2.87282 H 0 **** 0.41
1814 H 48.954 88.318 5.12268 H 0 **** 0.41
1815 H 62.079 87.372 3.65683 H 0 **** 0.053
1816 H 62.6524 85.7398 3.98556 H 0 **** 0.053
1817 H 62.4925 86.8873 5.3293 H 0 **** 0.053
1818 H 61.7223 83.8269 3.24184 H 0 **** 0.053
1819 H 60.8083 82.6829 4.23493 H 0 **** 0.053
1820 H 62.0655 83.6764 4.98603 H 0 **** 0.053
1821 C 9.05184 45.1166 59.2675 C.2 0 **** 0
1822 C 8.49992 45.3289 58.0138 C.2 0 **** 0
1823 C 7.92495 46.5521 57.7084 C.2 0 **** 0
1824 C 7.92384 47.5475 58.6539 C.2 0 **** 0
1825 C 8.52465 47.36 59.8929 C.2 0 **** 0
1826 C 9.09874 46.1424 60.1945 C.2 0 **** 0
1827 C 7.28249 48.8882 58.3575 C.3 0 **** -0.106
1828 C 6.49644 49.0526 57.0638 C.2 0 **** 0
1829 C 6.49168 48.0657 56.1179 C.2 0 **** 0
1830 C 7.29765 46.7871 56.3369 C.3 0 **** -0.106
1831 C 5.73884 48.2328 54.9512 C.2 0 **** 0
1832 C 4.93964 49.344 54.7684 C.2 0 **** 0
1833 C 5.02422 50.3902 55.6799 C.2 0 **** 0
1834 C 5.78746 50.2464 56.8449 C.2 0 **** 0
1835 C 5.82653 51.2673 57.7825 C.2 0 **** -0.1268
1836 C 5.04693 52.4041 57.7278 C.2 0 **** 0
1837 C 4.16393 52.4494 56.5914 C.2 0 **** 0
1838 C 4.33569 51.5871 55.5056 C.2 0 **** 0.042
1839 C 3.17116 53.6197 56.4455 C.3 0 **** 0
1840 C 3.19288 54.7282 57.501 C.3 0 **** 0
1841 C 4.32478 54.6988 58.5476 C.2 0 **** 0
1842 C 5.18249 53.5559 58.662 C.2 0 **** 0
1843 C 1.81865 55.3746 57.7763 C.3 0 **** -0.106
1844 C 0.715957 54.3251 57.9476 C.3 0 **** -0.053
1845 C 0.54315 53.4544 56.6658 C.3 0 **** -0.053
1846 C 1.79794 53.4434 55.7538 C.3 0 **** -0.106
1847 C 6.23397 53.6641 59.5943 C.2 0 **** 0.042
1848 C 6.38876 54.8005 60.3597 C.2 0 **** 0.052
1849 C 5.55427 55.8965 60.2 C.2 0 **** 0.052
1850 C 4.56725 55.8651 59.2508 C.2 0 **** 0.042
1851 C 5.70787 57.1546 61.0138 C.2 0 **** 0.367
1852 C 6.81265 57.1658 62.0174 C.2 0 **** 0
1853 C 7.63171 56.1178 62.1666 C.2 0 **** 0
1854 C 7.49864 54.8694 61.3778 C.2 0 **** 0.367
1855 C 8.74111 56.1327 63.193 C.3 0 **** -0.106
1856 C 8.26159 56.9127 64.4429 C.3 0 **** -0.106
1857 C 7.73031 58.2933 64.0564 C.2 0 **** 0
1858 C 6.99624 58.4187 62.855 C.2 0 **** 0.2405
1859 N 6.47169 59.5974 62.4568 N.2 0 **** -0.481
1860 C 6.58054 60.6379 63.2768 C.2 0 **** 0.2405
1861 C 7.32746 60.5837 64.4767 C.2 0 **** 0
1862 C 7.9109 59.3989 64.8496 C.2 0 **** 0
1863 C 8.70708 59.2772 66.1429 C.3 0 **** -0.106
1864 C 9.10189 60.6382 66.7296 C.3 0 **** -0.106
1865 C 7.91392 61.5943 66.7064 C.3 0 **** -0.106
1866 C 7.49773 61.8685 65.2487 C.3 0 **** -0.053
1867 C 6.19102 62.7024 65.1811 C.3 0 **** -0.106
1868 C 5.76366 62.8651 63.7467 C.2 0 **** 0
1869 C 5.94567 61.8254 62.8329 C.2 0 **** 0
1870 C 5.49551 61.9839 61.5099 C.2 0 **** -0.1268
1871 C 4.85547 63.1513 61.1409 C.2 0 **** -0.1268
1872 C 4.63352 64.1692 62.0518 C.2 0 **** 0
1873 C 5.07602 64.0127 63.365 C.2 0 **** 0
1874 C 9.79953 45.9388 61.5133 C.3 0 **** -0.106
1875 C 8.79799 45.5479 62.6205 C.3 0 **** -0.159
1876 C 9.60365 43.7572 59.6101 C.3 0 **** -0.159
1877 C 8.49781 48.5102 60.8729 C.3 0 **** -0.159
1878 C 8.51501 44.2289 56.9807 C.3 0 **** -0.159
1879 C 5.7943 47.1155 53.909 C.3 0 **** -0.159
1880 C 4.01154 49.3352 53.5766 C.3 0 **** -0.159
1881 O 3.74765 51.9005 54.3127 O.3 0 **** -0.452
1882 C -0.606649 53.9065 55.7632 C.3 0 **** -0.159
1883 C -0.562057 55.0556 58.3766 C.3 0 **** -0.159
1884 O 3.78092 56.9471 58.9599 O.3 0 **** -0.452
1885 O 7.12369 52.6509 59.7433 O.3 0 **** -0.452
1886 O 8.24584 53.9591 61.5383 O.2 0 **** -0.419
1887 O 4.94876 58.0705 60.8806 O.2 0 **** -0.419
1888 C 4.79628 65.1079 64.3805 C.3 0 **** -0.159
1889 C 3.89652 65.407 61.5807 C.3 0 **** -0.159
1890 H 6.5856 49.1114 59.1984 H 0 **** 0.053
1891 H 8.07857 49.672 58.3875 H 0 **** 0.053
1892 H 8.11405 46.7525 55.5757 H 0 **** 0.053
1893 H 6.62889 45.9254 56.1185 H 0 **** 0.053
1894 H 6.485 51.0914 58.6031 H 0 **** 0.1268
1895 H 1.84377 56.0009 58.6699 H 0 **** 0.053
1896 H 1.6055 56.0137 56.9165 H 0 **** 0.053
1897 H 1.01353 53.6567 58.7755 H 0 **** 0.053
1898 H 0.34529 52.4254 56.9938 H 0 **** 0.053
1899 H 1.74625 54.2923 55.066 H 0 **** 0.053
1900 H 1.77038 52.529 55.1488 H 0 **** 0.053
1901 H 9.05383 55.1174 63.4982 H 0 **** 0.053
1902 H 9.6274 56.6173 62.7479 H 0 **** 0.053
1903 H 9.10803 56.9504 65.1502 H 0 **** 0.053
1904 H 7.47114 56.3197 64.9505 H 0 **** 0.053
1905 H 8.10593 58.7269 66.8922 H 0 **** 0.053
1906 H 9.63435 58.6946 65.9946 H 0 **** 0.053
1907 H 9.92685 61.0758 66.136 H 0 **** 0.053
1908 H 9.48934 60.5179 67.7586 H 0 **** 0.053
1909 H 8.15622 62.5475 67.2137 H 0 **** 0.053
1910 H 7.06558 61.1474 67.256 H 0 **** 0.053
1911 H 8.31308 62.4679 64.7748 H 0 **** 0.053
1912 H 5.39646 62.1789 65.76 H 0 **** 0.053
1913 H 6.36741 63.671 65.6974 H 0 **** 0.053
1914 H 5.63952 61.1887 60.7678 H 0 **** 0.1268
1915 H 4.50139 63.2668 60.1038 H 0 **** 0.1268
1916 H 10.3598 46.8393 61.8321 H 0 **** 0.053
1917 H 10.5832 45.1628 61.4539 H 0 **** 0.053
1918 H 8.25844 44.6227 62.3587 H 0 **** 0.053
1919 H 8.05002 46.3407 62.7848 H 0 **** 0.053
1920 H 9.30735 45.3701 63.5888 H 0 **** 0.053
1921 H 9.08441 42.9351 59.0796 H 0 **** 0.053
1922 H 9.48976 43.5051 60.6816 H 0 **** 0.053
1923 H 10.6856 43.6725 59.3665 H 0 **** 0.053
1924 H 7.45539 48.7924 61.1434 H 0 **** 0.053
1925 H 8.9825 49.4197 60.457 H 0 **** 0.053
1926 H 9.00059 48.317 61.8321 H 0 **** 0.053
1927 H 8.47233 44.6 55.9384 H 0 **** 0.053
1928 H 7.65529 43.5344 57.1086 H 0 **** 0.053
1929 H 9.43942 43.6219 57.0235 H 0 **** 0.053
1930 H 5.68552 47.4928 52.8769 H 0 **** 0.053
1931 H 5.00012 46.352 54.0752 H 0 **** 0.053
1932 H 6.76598 46.571 53.8968 H 0 **** 0.053
1933 H 3.00265 49.7309 53.8287 H 0 **** 0.053
1934 H 3.78085 48.3146 53.1661 H 0 **** 0.053
1935 H 4.39662 49.936 52.7119 H 0 **** 0.053
1936 H 3.55523 52.8415 54.287 H 0 **** 0.41
1937 H -1.57881 53.8119 56.265 H 0 **** 0.053
1938 H -0.647204 53.2854 54.8481 H 0 **** 0.053
1939 H -0.475628 54.9581 55.4404 H 0 **** 0.053
1940 H -0.40256 55.594 59.3297 H 0 **** 0.053
1941 H -1.39386 54.3519 58.5296 H 0 **** 0.053
1942 H -0.870528 55.8108 57.6264 H 0 **** 0.053
1943 H 3.96354 57.6382 59.6142 H 0 **** 0.41
1944 H 7.75176 52.8616 60.4507 H 0 **** 0.41
1945 H 4.34216 64.6991 65.3025 H 0 **** 0.053
1946 H 4.08816 65.8778 64.019 H 0 **** 0.053
1947 H 5.72257 65.6462 64.6698 H 0 **** 0.053
1948 H 2.93645 65.5415 62.1117 H 0 **** 0.053
1949 H 3.65387 65.3622 60.5044 H 0 **** 0.053
1950 H 4.49401 66.3233 61.73 H 0 **** 0.053
1951 C 13.3531 61.3666 72.5234 C.2 0 **** 0
1952 C 13.5379 59.9929 72.543 C.2 0 **** 0
1953 C 14.1212 59.3569 71.4586 C.2 0 **** 0
1954 C 14.5238 60.104 70.3794 C.2 0 **** 0
1955 C 14.392 61.4874 70.3763 C.2 0 **** 0
1956 C 13.8133 62.1192 71.4577 C.2 0 **** 0
1957 C 15.1444 59.4346 69.1695 C.3 0 **** -0.106
1958 C 15.1582 57.9136 69.1023 C.2 0 **** 0
1959 C 14.7578 57.1627 70.1721 C.2 0 **** 0
1960 C 14.3104 57.8423 71.4645 C.3 0 **** -0.106
1961 C 14.7553 55.7677 70.0727 C.2 0 **** 0
1962 C 15.0786 55.1345 68.8889 C.2 0 **** 0
1963 C 15.5821 55.8911 67.837 C.2 0 **** 0
1964 C 15.6084 57.288 67.9269 C.2 0 **** 0
1965 C 16.0572 58.0464 66.8564 C.2 0 **** -0.1268
1966 C 16.3709 57.5313 65.6158 C.2 0 **** 0
1967 C 16.1888 56.1069 65.5141 C.2 0 **** 0
1968 C 16.0327 55.3137 66.6535 C.2 0 **** 0.042
1969 C 16.4172 55.405 64.1607 C.3 0 **** 0
1970 C 16.8785 56.2508 62.9715 C.3 0 **** 0
1971 C 17.2617 57.7188 63.2429 C.2 0 **** 0
1972 C 16.9764 58.3239 64.5111 C.2 0 **** 0
1973 C 16.3641 55.7609 61.6012 C.3 0 **** -0.106
1974 C 14.8675 55.4356 61.6343 C.3 0 **** -0.053
1975 C 14.5455 54.3025 62.6554 C.3 0 **** -0.053
1976 C 15.6273 54.1374 63.7551 C.3 0 **** -0.106
1977 C 17.4386 59.6438 64.6829 C.2 0 **** 0.042
1978 C 18.0958 60.3017 63.665 C.2 0 **** 0.052
1979 C 18.3815 59.6706 62.4628 C.2 0 **** 0.052
1980 C 18.0167 58.3637 62.2803 C.2 0 **** 0.042
1981 C 19.1073 60.3608 61.3371 C.2 0 **** 0.367
1982 C 19.4949 61.7819 61.574 C.2 0 **** 0
1983 C 19.2215 62.3929 62.7314 C.2 0 **** 0
1984 C 18.5267 61.7326 63.8565 C.2 0 **** 0.367
1985 C 19.573 63.8364 62.9426 C.3 0 **** -0.106
1986 C 19.4645 64.6236 61.6294 C.3 0 **** -0.106
1987 C 20.2372 63.9223 60.5065 C.2 0 **** 0
1988 C 20.2379 62.5094 60.467 C.2 0 **** 0.2405
1989 N 20.8584 61.8212 59.4836 N.2 0 **** -0.481
1990 C 21.4062 62.5118 58.4888 C.2 0 **** 0.2405
1991 C 21.4718 63.9247 58.4901 C.2 0 **** 0
1992 C 20.8925 64.6205 59.5211 C.2 0 **** 0
1993 C 20.9164 66.1438 59.5634 C.3 0 **** -0.106
1994 C 21.9373 66.7548 58.5952 C.3 0 **** -0.106
1995 C 21.8561 66.0731 57.2346 C.3 0 **** -0.106
1996 C 22.2388 64.5867 57.3733 C.3 0 **** -0.053
1997 C 22.0047 63.8195 56.0449 C.3 0 **** -0.106
1998 C 22.2951 62.3556 56.2449 C.2 0 **** 0
1999 C 21.9707 61.7292 57.4496 C.2 0 **** 0
2000 C 22.204 60.3498 57.5941 C.2 0 **** -0.1268
2001 C 22.7245 59.6297 56.5361 C.2 0 **** -0.1268
2002 C 23.0124 60.2357 55.326 C.2 0 **** 0
2003 C 22.7763 61.6025 55.1788 C.2 0 **** 0
2004 C 13.7097 63.6224 71.4928 C.3 0 **** -0.106
2005 C 12.4483 64.1104 70.7494 C.3 0 **** -0.159
2006 C 12.648 62.0329 73.6767 C.3 0 **** -0.159
2007 C 14.876 62.2405 69.1586 C.3 0 **** -0.159
2008 C 13.0985 59.1843 73.739 C.3 0 **** -0.159
2009 C 14.3321 54.9725 71.3079 C.3 0 **** -0.159
2010 C 14.8481 53.6434 68.8215 C.3 0 **** -0.159
2011 O 16.2454 53.9674 66.5554 O.3 0 **** -0.452
2012 C 14.4054 52.9188 62.0175 C.3 0 **** -0.159
2013 C 14.4256 55.1203 60.2004 C.3 0 **** -0.159
2014 O 18.3566 57.6472 61.165 O.3 0 **** -0.452
2015 O 17.2486 60.2889 65.8614 O.3 0 **** -0.452
2016 O 18.3204 62.3061 64.8788 O.2 0 **** -0.419
2017 O 19.3076 59.8018 60.297 O.2 0 **** -0.419
2018 C 23.044 62.2649 53.8371 C.3 0 **** -0.159
2019 C 23.5514 59.3752 54.2011 C.3 0 **** -0.159
2020 H 14.592 59.8002 68.273 H 0 **** 0.053
2021 H 16.1954 59.8007 69.0667 H 0 **** 0.053
2022 H 15.0472 57.5918 72.2655 H 0 **** 0.053
2023 H 13.3455 57.3818 71.7714 H 0 **** 0.053
2024 H 16.102 59.0956 67.0434 H 0 **** 0.1268
2025 H 16.5411 56.5023 60.8197 H 0 **** 0.053
2026 H 16.9432 54.8663 61.3611 H 0 **** 0.053
2027 H 14.3325 56.3467 61.957 H 0 **** 0.053
2028 H 13.5952 54.5604 63.1411 H 0 **** 0.053
2029 H 16.4032 53.4571 63.3927 H 0 **** 0.053
2030 H 15.1573 53.6647 64.626 H 0 **** 0.053
2031 H 19.0031 64.3251 63.7436 H 0 **** 0.053
2032 H 20.6165 63.8574 63.246 H 0 **** 0.053
2033 H 19.8395 65.6433 61.837 H 0 **** 0.053
2034 H 18.3943 64.732 61.3663 H 0 **** 0.053
2035 H 19.9104 66.5307 59.3095 H 0 **** 0.053
2036 H 21.1472 66.5156 60.5783 H 0 **** 0.053
2037 H 22.9603 66.6303 58.9918 H 0 **** 0.053
2038 H 21.7763 67.8441 58.5012 H 0 **** 0.053
2039 H 22.5211 66.565 56.4992 H 0 **** 0.053
2040 H 20.8274 66.156 56.8387 H 0 **** 0.053
2041 H 23.3297 64.5392 57.6076 H 0 **** 0.053
2042 H 20.9471 63.9616 55.7246 H 0 **** 0.053
2043 H 22.6344 64.2863 55.2565 H 0 **** 0.053
2044 H 21.9663 59.8383 58.5355 H 0 **** 0.1268
2045 H 22.8868 58.5466 56.6525 H 0 **** 0.1268
2046 H 14.6015 64.1128 71.0558 H 0 **** 0.053
2047 H 13.6876 64.0148 72.5251 H 0 **** 0.053
2048 H 11.5354 63.6811 71.194 H 0 **** 0.053
2049 H 12.473 63.825 69.685 H 0 **** 0.053
2050 H 12.3495 65.2134 70.7926 H 0 **** 0.053
2051 H 11.904 61.3741 74.1658 H 0 **** 0.053
2052 H 12.0648 62.9212 73.368 H 0 **** 0.053
2053 H 13.3588 62.3652 74.4653 H 0 **** 0.053
2054 H 14.3207 61.937 68.2426 H 0 **** 0.053
2055 H 15.954 62.0572 68.9601 H 0 **** 0.053
2056 H 14.765 63.3336 69.2124 H 0 **** 0.053
2057 H 13.6558 58.2353 73.8607 H 0 **** 0.053
2058 H 12.0202 58.9169 73.6796 H 0 **** 0.053
2059 H 13.2531 59.7233 74.6933 H 0 **** 0.053
2060 H 14.848 53.9989 71.3827 H 0 **** 0.053
2061 H 13.2356 54.7756 71.3206 H 0 **** 0.053
2062 H 14.5779 55.4828 72.2671 H 0 **** 0.053
2063 H 14.3995 53.3329 67.8518 H 0 **** 0.053
2064 H 14.1124 53.2457 69.5726 H 0 **** 0.053
2065 H 15.7855 53.0442 68.9603 H 0 **** 0.053
2066 H 16.7938 53.786 65.7874 H 0 **** 0.41
2067 H 13.559 52.8767 61.3192 H 0 **** 0.053
2068 H 14.2291 52.1507 62.7944 H 0 **** 0.053
2069 H 15.3271 52.6306 61.4744 H 0 **** 0.053
2070 H 14.6087 55.9859 59.5363 H 0 **** 0.053
2071 H 13.3509 54.889 60.1535 H 0 **** 0.053
2072 H 14.9905 54.2649 59.7791 H 0 **** 0.053
2073 H 18.7594 58.2565 60.5276 H 0 **** 0.41
2074 H 17.5826 61.1968 65.7987 H 0 **** 0.41
2075 H 22.1781 62.8656 53.4999 H 0 **** 0.053
2076 H 23.2408 61.5469 53.018 H 0 **** 0.053
2077 H 23.9252 62.9383 53.8808 H 0 **** 0.053
2078 H 22.8623 59.3505 53.3366 H 0 **** 0.053
2079 H 23.6972 58.3255 54.5111 H 0 **** 0.053
2080 H 24.5298 59.7359 53.8375 H 0 **** 0.053
2081 C 47.1099 0.343801 40.2913 C.2 0 **** 0
2082 C 47.9398 1.12956 39.5065 C.2 0 **** 0
2083 C 48.0481 2.48788 39.7582 C.2 0 **** 0
2084 C 47.3378 3.03598 40.7976 C.2 0 **** 0
2085 C 46.548 2.24431 41.6232 C.2 0 **** 0
2086 C 46.4433 0.891714 41.3729 C.2 0 **** 0
2087 C 47.4173 4.52226 41.0825 C.3 0 **** -0.106
2088 C 48.1613 5.4167 40.0998 C.2 0 **** 0
2089 C 48.8703 4.87844 39.062 C.2 0 **** 0
2090 C 48.9447 3.36321 38.8862 C.3 0 **** -0.106
2091 C 49.5213 5.725 38.1588 C.2 0 **** 0
2092 C 49.3991 7.09745 38.251 C.2 0 **** 0
2093 C 48.7664 7.644 39.3617 C.2 0 **** 0
2094 C 48.1251 6.8096 40.2854 C.2 0 **** 0
2095 C 47.4438 7.35632 41.3624 C.2 0 **** -0.1268
2096 C 47.2249 8.7067 41.5407 C.2 0 **** 0
2097 C 47.7718 9.52747 40.4917 C.2 0 **** 0
2098 C 48.7015 9.01686 39.582 C.2 0 **** 0.042
2099 C 47.5293 11.0499 40.5125 C.3 0 **** 0
2100 C 46.7479 11.6466 41.6859 C.3 0 **** 0
2101 C 46.4032 10.7145 42.8649 C.2 0 **** 0
2102 C 46.6086 9.29954 42.7599 C.2 0 **** 0
2103 C 45.8981 12.8833 41.3242 C.3 0 **** -0.106
2104 C 45.0927 12.6689 40.0388 C.3 0 **** -0.053
2105 C 46.0198 12.3993 38.8147 C.3 0 **** -0.053
2106 C 47.4266 11.8781 39.2091 C.3 0 **** -0.106
2107 C 46.3372 8.54871 43.9214 C.2 0 **** 0.042
2108 C 45.8739 9.15865 45.0678 C.2 0 **** 0.052
2109 C 45.7137 10.5346 45.1383 C.2 0 **** 0.052
2110 C 46.0405 11.3118 44.0588 C.2 0 **** 0.042
2111 C 45.2206 11.2292 46.3808 C.2 0 **** 0.367
2112 C 44.9043 10.3542 47.5481 C.2 0 **** 0
2113 C 45.0712 9.02725 47.4929 C.2 0 **** 0
2114 C 45.5536 8.32321 46.2809 C.2 0 **** 0.367
2115 C 44.738 8.1478 48.6761 C.3 0 **** -0.106
2116 C 43.5055 8.73473 49.4088 C.3 0 **** -0.106
2117 C 43.7209 10.2096 49.7496 C.2 0 **** 0
2118 C 44.4058 11.0216 48.8174 C.2 0 **** 0.2405
2119 N 44.6156 12.3375 49.0333 N.2 0 **** -0.481
2120 C 44.0713 12.8878 50.1139 C.2 0 **** 0.2405
2121 C 43.4017 12.124 51.0982 C.2 0 **** 0
2122 C 43.244 10.7744 50.9061 C.2 0 **** 0
2123 C 42.5115 9.90699 51.9223 C.3 0 **** -0.106
2124 C 42.3462 10.5945 53.2832 C.3 0 **** -0.106
2125 C 41.8785 12.0345 53.1001 C.3 0 **** -0.106
2126 C 42.9577 12.8385 52.3503 C.3 0 **** -0.053
2127 C 42.4564 14.2633 51.9951 C.3 0 **** -0.106
2128 C 43.4982 14.9818 51.1795 C.2 0 **** 0
2129 C 44.2659 14.2861 50.2435 C.2 0 **** 0
2130 C 45.201 14.9875 49.4615 C.2 0 **** -0.1268
2131 C 45.3259 16.3555 49.6087 C.2 0 **** -0.1268
2132 C 44.5384 17.0583 50.5037 C.2 0 **** 0
2133 C 43.6084 16.3652 51.2783 C.2 0 **** 0
2134 C 45.6316 0.0105383 42.2882 C.3 0 **** -0.106
2135 C 44.1392 0.0253107 41.8943 C.3 0 **** -0.159
2136 C 46.9432 -1.11557 39.956 C.3 0 **** -0.159
2137 C 45.8115 2.91933 42.7576 C.3 0 **** -0.159
2138 C 48.7213 0.513326 38.3716 C.3 0 **** -0.159
2139 C 50.3283 5.07315 37.0352 C.3 0 **** -0.159
2140 C 49.9637 7.91631 37.115 C.3 0 **** -0.159
2141 O 49.47 9.88891 38.8635 O.3 0 **** -0.452
2142 C 46.2761 13.6357 37.9507 C.3 0 **** -0.159
2143 C 44.1671 13.8781 39.8598 C.3 0 **** -0.159
2144 O 46.0181 12.6798 44.0937 O.3 0 **** -0.452
2145 O 46.5427 7.20759 43.9335 O.3 0 **** -0.452
2146 O 45.6897 7.14143 46.2711 O.2 0 **** -0.419
2147 O 45.0568 12.4138 46.4002 O.2 0 **** -0.419
2148 C 42.711 17.1368 52.2316 C.3 0 **** -0.159
2149 C 44.7112 18.5619 50.5865 C.3 0 **** -0.159
2150 H 46.3707 4.90044 41.1467 H 0 **** 0.053
2151 H 47.8686 4.66113 42.0953 H 0 **** 0.053
2152 H 50.0018 3.04275 39.0501 H 0 **** 0.053
2153 H 48.7094 3.13565 37.823 H 0 **** 0.053
2154 H 47.0437 6.64024 42.0444 H 0 **** 0.1268
2155 H 45.2066 13.1418 42.1282 H 0 **** 0.053
2156 H 46.6015 13.7097 41.1991 H 0 **** 0.053
2157 H 44.4555 11.7784 40.1859 H 0 **** 0.053
2158 H 45.5298 11.6364 38.1954 H 0 **** 0.053
2159 H 48.0841 12.7321 39.3952 H 0 **** 0.053
2160 H 47.8374 11.3282 38.3537 H 0 **** 0.053
2161 H 44.523 7.10366 48.384 H 0 **** 0.053
2162 H 45.6128 8.11542 49.3487 H 0 **** 0.053
2163 H 43.3192 8.10262 50.294 H 0 **** 0.053
2164 H 42.6134 8.61298 48.758 H 0 **** 0.053
2165 H 41.5092 9.65082 51.5281 H 0 **** 0.053
2166 H 43.0376 8.95019 52.0919 H 0 **** 0.053
2167 H 43.3134 10.5969 53.8208 H 0 **** 0.053
2168 H 41.6386 10.0298 53.9183 H 0 **** 0.053
2169 H 41.6628 12.5135 54.0741 H 0 **** 0.053
2170 H 40.9371 12.05 52.521 H 0 **** 0.053
2171 H 43.8343 12.943 53.0355 H 0 **** 0.053
2172 H 41.5082 14.1804 51.4164 H 0 **** 0.053
2173 H 42.202 14.79 52.9404 H 0 **** 0.053
2174 H 45.8279 14.463 48.7295 H 0 **** 0.1268
2175 H 46.0577 16.8991 48.9894 H 0 **** 0.1268
2176 H 45.7301 0.307586 43.3507 H 0 **** 0.053
2177 H 45.9883 -1.03476 42.2857 H 0 **** 0.053
2178 H 43.9996 -0.31694 40.8554 H 0 **** 0.053
2179 H 43.7108 1.03763 41.9767 H 0 **** 0.053
2180 H 43.5379 -0.641012 42.5448 H 0 **** 0.053
2181 H 47.0557 -1.32482 38.8741 H 0 **** 0.053
2182 H 45.9361 -1.50082 40.2051 H 0 **** 0.053
2183 H 47.68 -1.75342 40.492 H 0 **** 0.053
2184 H 45.0916 3.68053 42.3811 H 0 **** 0.053
2185 H 46.5066 3.443 43.4488 H 0 **** 0.053
2186 H 45.2136 2.24687 43.3905 H 0 **** 0.053
2187 H 49.6381 1.07569 38.1084 H 0 **** 0.053
2188 H 48.1111 0.444034 37.4437 H 0 **** 0.053
2189 H 49.078 -0.506878 38.6095 H 0 **** 0.053
2190 H 51.2001 5.67899 36.7352 H 0 **** 0.053
2191 H 49.7092 4.90254 36.1251 H 0 **** 0.053
2192 H 50.7639 4.08779 37.3178 H 0 **** 0.053
2193 H 49.2879 8.74981 36.8221 H 0 **** 0.053
2194 H 50.1005 7.35677 36.1499 H 0 **** 0.053
2195 H 50.96 8.36873 37.3534 H 0 **** 0.053
2196 H 49.501 10.736 39.3154 H 0 **** 0.41
2197 H 45.3516 14.0082 37.4896 H 0 **** 0.053
2198 H 46.9789 13.3953 37.1305 H 0 **** 0.053
2199 H 46.7307 14.4538 38.5434 H 0 **** 0.053
2200 H 43.4815 13.9758 40.7225 H 0 **** 0.053
2201 H 43.5482 13.7789 38.9555 H 0 **** 0.053
2202 H 44.741 14.8239 39.7942 H 0 **** 0.053
2203 H 45.6123 12.9556 44.9296 H 0 **** 0.41
2204 H 46.2657 6.837 44.7846 H 0 **** 0.41
2205 H 41.6478 16.8634 52.0972 H 0 **** 0.053
2206 H 42.7538 18.2339 52.0917 H 0 **** 0.053
2207 H 42.9783 16.9467 53.2918 H 0 **** 0.053
2208 H 43.7921 19.099 50.2887 H 0 **** 0.053
2209 H 45.5144 18.9256 49.9217 H 0 **** 0.053
2210 H 44.976 18.8903 51.6068 H 0 **** 0.053
2211 C 41.7011 95.9882 19.5948 C.2 0 **** 0
2212 C 41.479 94.9308 20.4632 C.2 0 **** 0
2213 C 42.3639 93.865 20.497 C.2 0 **** 0
2214 C 43.4631 93.8793 19.6746 C.2 0 **** 0
2215 C 43.7213 94.9617 18.842 C.2 0 **** 0
2216 C 42.8408 96.0231 18.8114 C.2 0 **** 0
2217 C 44.4365 92.7178 19.6724 C.3 0 **** -0.106
2218 C 44.0857 91.4685 20.4688 C.2 0 **** 0
2219 C 42.9923 91.446 21.289 C.2 0 **** 0
2220 C 42.1158 92.6878 21.4363 C.3 0 **** -0.106
2221 C 42.679 90.2759 21.9879 C.2 0 **** 0
2222 C 43.4099 89.1182 21.8084 C.2 0 **** 0
2223 C 44.5777 89.1696 21.056 C.2 0 **** 0
2224 C 44.9156 90.3389 20.364 C.2 0 **** 0
2225 C 46.05 90.3734 19.5674 C.2 0 **** -0.1268
2226 C 46.8349 89.2751 19.283 C.2 0 **** 0
2227 C 46.3715 88.0559 19.8929 C.2 0 **** 0
2228 C 45.4253 88.074 20.9208 C.2 0 **** 0.042
2229 C 47.1001 86.7307 19.5934 C.3 0 **** 0
2230 C 48.3321 86.7666 18.6857 C.3 0 **** 0
2231 C 48.8751 88.1484 18.2697 C.2 0 **** 0
2232 C 48.1216 89.3384 18.5361 C.2 0 **** 0
2233 C 48.5301 85.4994 17.8271 C.3 0 **** -0.106
2234 C 47.2286 85.0562 17.1515 C.3 0 **** -0.053
2235 C 46.1242 84.7113 18.1963 C.3 0 **** -0.053
2236 C 46.3545 85.3746 19.5796 C.3 0 **** -0.106
2237 C 48.7437 90.554 18.1875 C.2 0 **** 0.042
2238 C 49.9907 90.569 17.5997 C.2 0 **** 0.052
2239 C 50.7002 89.3973 17.3834 C.2 0 **** 0.052
2240 C 50.1669 88.1989 17.7775 C.2 0 **** 0.042
2241 C 52.0685 89.3851 16.7538 C.2 0 **** 0.367
2242 C 52.6319 90.7113 16.3642 C.2 0 **** 0
2243 C 51.96 91.8476 16.5839 C.2 0 **** 0
2244 C 50.612 91.8832 17.2005 C.2 0 **** 0.367
2245 C 52.5327 93.1857 16.1758 C.3 0 **** -0.106
2246 C 53.3326 93.0123 14.8604 C.3 0 **** -0.106
2247 C 54.3621 91.8893 14.9894 C.2 0 **** 0
2248 C 54.0098 90.736 15.7268 C.2 0 **** 0.2405
2249 N 54.8525 89.6904 15.8645 N.2 0 **** -0.481
2250 C 56.0062 89.7263 15.2053 C.2 0 **** 0.2405
2251 C 56.4281 90.8626 14.4767 C.2 0 **** 0
2252 C 55.5942 91.9488 14.3873 C.2 0 **** 0
2253 C 55.9878 93.1904 13.5967 C.3 0 **** -0.106
2254 C 57.4877 93.2447 13.2812 C.3 0 **** -0.106
2255 C 57.9772 91.8904 12.7792 C.3 0 **** -0.106
2256 C 57.8187 90.8373 13.8923 C.3 0 **** -0.053
2257 C 58.1477 89.4124 13.3735 C.3 0 **** -0.106
2258 C 57.8868 88.4017 14.4584 C.2 0 **** 0
2259 C 56.8121 88.567 15.3343 C.2 0 **** 0
2260 C 56.5608 87.5854 16.3096 C.2 0 **** -0.1268
2261 C 57.3606 86.4605 16.369 C.2 0 **** -0.1268
2262 C 58.4013 86.269 15.4772 C.2 0 **** 0
2263 C 58.6503 87.2395 14.5071 C.2 0 **** 0
2264 C 43.1322 97.2273 17.9531 C.3 0 **** -0.106
2265 C 42.6501 97.0068 16.5037 C.3 0 **** -0.159
2266 C 40.6897 97.102 19.5147 C.3 0 **** -0.159
2267 C 44.9619 94.9103 17.9803 C.3 0 **** -0.159
2268 C 40.2711 94.9312 21.3679 C.3 0 **** -0.159
2269 C 41.4665 90.3125 22.9185 C.3 0 **** -0.159
2270 C 42.8715 87.8593 22.446 C.3 0 **** -0.159
2271 O 45.2969 86.9735 21.7205 O.3 0 **** -0.452
2272 C 45.9936 83.2143 18.4844 C.3 0 **** -0.159
2273 C 47.5649 83.9004 16.2017 C.3 0 **** -0.159
2274 O 50.8542 87.0177 17.6994 O.3 0 **** -0.452
2275 O 48.1267 91.7357 18.4392 O.3 0 **** -0.452
2276 O 50.0459 92.9132 17.3784 O.2 0 **** -0.419
2277 O 52.6405 88.3554 16.5433 O.2 0 **** -0.419
2278 C 59.7635 87.0142 13.4974 C.3 0 **** -0.159
2279 C 59.2152 84.995 15.5851 C.3 0 **** -0.159
2280 H 44.5725 92.4059 18.6109 H 0 **** 0.053
2281 H 45.4293 93.0917 20.0239 H 0 **** 0.053
2282 H 42.2087 93.0601 22.485 H 0 **** 0.053
2283 H 41.0573 92.3704 21.3089 H 0 **** 0.053
2284 H 46.259 91.3253 19.1338 H 0 **** 0.1268
2285 H 49.2865 85.6538 17.0556 H 0 **** 0.053
2286 H 48.8889 84.7239 18.5076 H 0 **** 0.053
2287 H 46.8645 85.8992 16.5371 H 0 **** 0.053
2288 H 45.169 85.0737 17.7939 H 0 **** 0.053
2289 H 46.993 84.7247 20.1847 H 0 **** 0.053
2290 H 45.3852 85.4473 20.0873 H 0 **** 0.053
2291 H 51.7537 93.9555 16.0272 H 0 **** 0.053
2292 H 53.1886 93.5498 16.9857 H 0 **** 0.053
2293 H 53.7795 93.9917 14.6176 H 0 **** 0.053
2294 H 52.6196 92.7939 14.037 H 0 **** 0.053
2295 H 55.4222 93.2127 12.6454 H 0 **** 0.053
2296 H 55.726 94.1161 14.1404 H 0 **** 0.053
2297 H 58.052 93.514 14.1943 H 0 **** 0.053
2298 H 57.6987 94.0379 12.54 H 0 **** 0.053
2299 H 59.0349 91.94 12.4574 H 0 **** 0.053
2300 H 57.3887 91.5858 11.8947 H 0 **** 0.053
2301 H 58.5521 91.0877 14.6975 H 0 **** 0.053
2302 H 57.5113 89.1937 12.4859 H 0 **** 0.053
2303 H 59.1995 89.4055 13.0137 H 0 **** 0.053
2304 H 55.7324 87.6977 17.0203 H 0 **** 0.1268
2305 H 57.1551 85.6932 17.133 H 0 **** 0.1268
2306 H 44.21 97.4817 17.9425 H 0 **** 0.053
2307 H 42.6609 98.1448 18.3479 H 0 **** 0.053
2308 H 41.5671 96.8024 16.4727 H 0 **** 0.053
2309 H 43.1685 96.1559 16.0323 H 0 **** 0.053
2310 H 42.8361 97.8974 15.8706 H 0 **** 0.053
2311 H 39.6581 96.7637 19.7341 H 0 **** 0.053
2312 H 40.6215 97.5481 18.5043 H 0 **** 0.053
2313 H 40.9215 97.9277 20.2229 H 0 **** 0.053
2314 H 44.931 94.0535 17.2701 H 0 **** 0.053
2315 H 45.8842 94.7938 18.5893 H 0 **** 0.053
2316 H 45.1298 95.7976 17.352 H 0 **** 0.053
2317 H 40.4036 94.3225 22.2832 H 0 **** 0.053
2318 H 39.3698 94.5363 20.8487 H 0 **** 0.053
2319 H 40.0218 95.9435 21.7392 H 0 **** 0.053
2320 H 41.5846 89.651 23.7948 H 0 **** 0.053
2321 H 40.5302 90.0139 22.3936 H 0 **** 0.053
2322 H 41.2801 91.3173 23.3615 H 0 **** 0.053
2323 H 42.9536 86.98 21.7693 H 0 **** 0.053
2324 H 41.7737 87.8848 22.6857 H 0 **** 0.053
2325 H 43.3906 87.5911 23.4028 H 0 **** 0.053
2326 H 46.1003 86.4485 21.6731 H 0 **** 0.41
2327 H 45.681 82.6546 17.5928 H 0 **** 0.053
2328 H 45.2328 83.0362 19.2679 H 0 **** 0.053
2329 H 46.9489 82.7901 18.8517 H 0 **** 0.053
2330 H 48.2955 84.2238 15.4365 H 0 **** 0.053
2331 H 46.669 83.5427 15.6723 H 0 **** 0.053
2332 H 48.0203 83.0475 16.7433 H 0 **** 0.053
2333 H 51.6774 87.1777 17.2138 H 0 **** 0.41
2334 H 48.6636 92.469 18.1034 H 0 **** 0.41
2335 H 59.4104 87.1764 12.462 H 0 **** 0.053
2336 H 60.1733 85.9862 13.5115 H 0 **** 0.053
2337 H 60.6216 87.6955 13.6729 H 0 **** 0.053
2338 H 59.1251 84.3701 14.6777 H 0 **** 0.053
2339 H 58.8906 84.364 16.4311 H 0 **** 0.053
2340 H 60.2874 85.2047 15.7436 H 0 **** 0.053
2341 C 90.7504 58.8793 48.5098 C.2 0 **** 0
2342 C 91.7659 58.1803 47.8759 C.2 0 **** 0
2343 C 91.8934 56.8144 48.0724 C.2 0 **** 0
2344 C 90.9968 56.1667 48.8859 C.2 0 **** 0
2345 C 89.9436 56.8516 49.4799 C.2 0 **** 0
2346 C 89.8166 58.2109 49.2815 C.2 0 **** 0
2347 C 91.1239 54.6776 49.1381 C.3 0 **** -0.106
2348 C 92.3536 53.9495 48.6131 C.2 0 **** 0
2349 C 93.2515 54.5877 47.8035 C.2 0 **** 0
2350 C 93.0206 56.0407 47.3938 C.3 0 **** -0.106
2351 C 94.3861 53.9021 47.3578 C.2 0 **** 0
2352 C 94.6561 52.6154 47.78 C.2 0 **** 0
2353 C 93.6952 51.9338 48.5179 C.2 0 **** 0
2354 C 92.545 52.6002 48.9575 C.2 0 **** 0
2355 C 91.6132 51.9374 49.7418 C.2 0 **** -0.1268
2356 C 91.7894 50.669 50.2549 C.2 0 **** 0
2357 C 93.0511 50.0703 49.9047 C.2 0 **** 0
2358 C 93.846 50.5998 48.885 C.2 0 **** 0.042
2359 C 93.4233 48.6889 50.479 C.3 0 **** 0
2360 C 92.4062 47.9742 51.3723 C.3 0 **** 0
2361 C 91.002 48.5981 51.5002 C.2 0 **** 0
2362 C 90.7374 49.9099 50.9861 C.2 0 **** 0
2363 C 93.0322 47.0955 52.4759 C.3 0 **** -0.106
2364 C 94.1614 47.8212 53.2146 C.3 0 **** -0.053
2365 C 95.324 48.2121 52.2521 C.3 0 **** -0.053
2366 C 94.8919 48.2922 50.7642 C.3 0 **** -0.106
2367 C 89.403 50.3532 51.0828 C.2 0 **** 0.042
2368 C 88.435 49.5654 51.6686 C.2 0 **** 0.052
2369 C 88.7248 48.2899 52.1295 C.2 0 **** 0.052
2370 C 89.9911 47.7879 51.985 C.2 0 **** 0.042
2371 C 87.6845 47.4033 52.7623 C.2 0 **** 0.367
2372 C 86.3086 47.9705 52.876 C.2 0 **** 0
2373 C 86.0177 49.1945 52.4195 C.2 0 **** 0
2374 C 87.0253 50.0847 51.7945 C.2 0 **** 0.367
2375 C 84.6244 49.766 52.5485 C.3 0 **** -0.106
2376 C 84 49.2778 53.8797 C.3 0 **** -0.106
2377 C 84.0792 47.7553 53.9959 C.2 0 **** 0
2378 C 85.2349 47.1034 53.5088 C.2 0 **** 0.2405
2379 N 85.3924 45.7654 53.5978 N.2 0 **** -0.481
2380 C 84.4648 45.0692 54.2473 C.2 0 **** 0.2405
2381 C 83.2733 45.6585 54.7303 C.2 0 **** 0
2382 C 83.0883 47.0105 54.5853 C.2 0 **** 0
2383 C 81.8348 47.7017 55.107 C.3 0 **** -0.106
2384 C 80.6996 46.7191 55.4201 C.3 0 **** -0.106
2385 C 81.2315 45.5184 56.1955 C.3 0 **** -0.106
2386 C 82.2331 44.7399 55.3217 C.3 0 **** -0.053
2387 C 82.9244 43.6081 56.1267 C.3 0 **** -0.106
2388 C 83.9643 42.9359 55.2704 C.2 0 **** 0
2389 C 84.726 43.681 54.3683 C.2 0 **** 0
2390 C 85.7242 43.0388 53.614 C.2 0 **** -0.1268
2391 C 85.9563 41.6891 53.7961 C.2 0 **** -0.1268
2392 C 85.2344 40.9528 54.7188 C.2 0 **** 0
2393 C 84.2464 41.5884 55.4703 C.2 0 **** 0
2394 C 88.6513 58.9593 49.8761 C.3 0 **** -0.106
2395 C 88.9414 59.3717 51.3347 C.3 0 **** -0.159
2396 C 90.6721 60.3753 48.3474 C.3 0 **** -0.159
2397 C 88.9881 56.0642 50.3469 C.3 0 **** -0.159
2398 C 92.7398 58.9034 46.9776 C.3 0 **** -0.159
2399 C 95.3418 54.6487 46.4269 C.3 0 **** -0.159
2400 C 96.0021 52.0386 47.4102 C.3 0 **** -0.159
2401 O 94.8158 49.8151 48.3275 O.3 0 **** -0.452
2402 C 96.5014 47.2352 52.2779 C.3 0 **** -0.159
2403 C 94.5997 46.9341 54.3858 C.3 0 **** -0.159
2404 O 90.3218 46.5005 52.3117 O.3 0 **** -0.452
2405 O 89.046 51.5636 50.5848 O.3 0 **** -0.452
2406 O 86.7287 51.1662 51.4008 O.2 0 **** -0.419
2407 O 87.9726 46.3214 53.1856 O.2 0 **** -0.419
2408 C 83.4812 40.7958 56.5167 C.3 0 **** -0.159
2409 C 85.5681 39.4838 54.8852 C.3 0 **** -0.159
2410 H 91.098 54.5285 50.2425 H 0 **** 0.053
2411 H 90.2148 54.1735 48.7277 H 0 **** 0.053
2412 H 92.8419 56.07 46.2919 H 0 **** 0.053
2413 H 93.9677 56.596 47.5728 H 0 **** 0.053
2414 H 90.7413 52.5072 49.9721 H 0 **** 0.1268
2415 H 92.2855 46.7802 53.2069 H 0 **** 0.053
2416 H 93.4168 46.2049 51.9739 H 0 **** 0.053
2417 H 93.7428 48.7519 53.6381 H 0 **** 0.053
2418 H 95.6857 49.2017 52.5612 H 0 **** 0.053
2419 H 94.9817 47.2999 50.3131 H 0 **** 0.053
2420 H 95.5925 48.9548 50.2421 H 0 **** 0.053
2421 H 84.6129 50.871 52.5271 H 0 **** 0.053
2422 H 84.0226 49.4255 51.6881 H 0 **** 0.053
2423 H 82.9685 49.668 53.9202 H 0 **** 0.053
2424 H 84.5381 49.761 54.723 H 0 **** 0.053
2425 H 82.0834 48.2642 56.0275 H 0 **** 0.053
2426 H 81.4481 48.4403 54.3817 H 0 **** 0.053
2427 H 80.2426 46.3632 54.4772 H 0 **** 0.053
2428 H 79.8945 47.2254 55.9844 H 0 **** 0.053
2429 H 80.4092 44.8486 56.5117 H 0 **** 0.053
2430 H 81.7339 45.8634 57.1174 H 0 **** 0.053
2431 H 81.6556 44.267 54.4901 H 0 **** 0.053
2432 H 83.4002 44.0464 57.0334 H 0 **** 0.053
2433 H 82.1404 42.9095 56.4916 H 0 **** 0.053
2434 H 86.3269 43.5979 52.8874 H 0 **** 0.1268
2435 H 86.7431 41.1934 53.2051 H 0 **** 0.1268
2436 H 87.7155 58.3678 49.8456 H 0 **** 0.053
2437 H 88.3965 59.8638 49.2958 H 0 **** 0.053
2438 H 89.8401 60.0073 51.3961 H 0 **** 0.053
2439 H 89.1055 58.491 51.9771 H 0 **** 0.053
2440 H 88.1005 59.9461 51.7726 H 0 **** 0.053
2441 H 91.6632 60.8448 48.1918 H 0 **** 0.053
2442 H 90.2673 60.8832 49.2434 H 0 **** 0.053
2443 H 90.0317 60.6688 47.4865 H 0 **** 0.053
2444 H 89.5088 55.6068 51.2182 H 0 **** 0.053
2445 H 88.5068 55.2349 49.7849 H 0 **** 0.053
2446 H 88.1629 56.6483 50.7805 H 0 **** 0.053
2447 H 93.1995 58.2523 46.2093 H 0 **** 0.053
2448 H 93.5756 59.3534 47.558 H 0 **** 0.053
2449 H 92.2591 59.7182 46.4034 H 0 **** 0.053
2450 H 95.843 53.9777 45.7072 H 0 **** 0.053
2451 H 96.1344 55.1904 46.9921 H 0 **** 0.053
2452 H 94.833 55.4029 45.7841 H 0 **** 0.053
2453 H 96.464 51.4803 48.2545 H 0 **** 0.053
2454 H 96.7887 52.8011 47.1587 H 0 **** 0.053
2455 H 95.9585 51.3394 46.5348 H 0 **** 0.053
2456 H 94.6137 48.8904 48.4926 H 0 **** 0.41
2457 H 96.9875 47.2104 53.2624 H 0 **** 0.053
2458 H 97.2695 47.536 51.5403 H 0 **** 0.053
2459 H 96.1783 46.2084 52.0161 H 0 **** 0.053
2460 H 93.7541 46.7522 55.0754 H 0 **** 0.053
2461 H 95.4049 47.4074 54.9676 H 0 **** 0.053
2462 H 94.9511 45.9428 54.0364 H 0 **** 0.053
2463 H 89.5645 46.0995 52.764 H 0 **** 0.41
2464 H 88.111 51.7369 50.7713 H 0 **** 0.41
2465 H 83.4719 41.3163 57.4926 H 0 **** 0.053
2466 H 83.9121 39.7968 56.7194 H 0 **** 0.053
2467 H 82.4272 40.6262 56.2137 H 0 **** 0.053
2468 H 85.9414 39.2589 55.9011 H 0 **** 0.053
2469 H 86.3545 39.1538 54.1838 H 0 **** 0.053
2470 H 84.6911 38.8394 54.6996 H 0 **** 0.053
2471 C 78.0899 39.9045 50.5056 C.2 0 **** 0
2472 C 77.6734 39.4241 49.2738 C.2 0 **** 0
2473 C 78.5818 38.8086 48.4275 C.2 0 **** 0
2474 C 79.8867 38.6695 48.8311 C.2 0 **** 0
2475 C 80.2983 39.0989 50.0872 C.2 0 **** 0
2476 C 79.3924 39.7096 50.9295 C.2 0 **** 0
2477 C 80.9081 38.0212 47.9184 C.3 0 **** -0.106
2478 C 80.5024 37.6826 46.4904 C.2 0 **** 0
2479 C 79.2054 37.8195 46.0807 C.2 0 **** 0
2480 C 78.1354 38.2947 47.0612 C.3 0 **** -0.106
2481 C 78.8665 37.5267 44.7558 C.2 0 **** 0
2482 C 79.8305 37.1731 43.8325 C.2 0 **** 0
2483 C 81.1279 36.9357 44.2717 C.2 0 **** 0
2484 C 81.4798 37.2068 45.5994 C.2 0 **** 0
2485 C 82.7872 37.0247 46.0243 C.2 0 **** -0.1268
2486 C 83.84 36.7113 45.1899 C.2 0 **** 0
2487 C 83.4668 36.5859 43.8049 C.2 0 **** 0
2488 C 82.1279 36.47 43.423 C.2 0 **** 0.042
2489 C 84.5547 36.3236 42.7445 C.3 0 **** 0
2490 C 86.0024 36.157 43.2131 C.3 0 **** 0
2491 C 86.26 36.0847 44.7315 C.2 0 **** 0
2492 C 85.2145 36.3892 45.6638 C.2 0 **** 0
2493 C 87.0604 36.665 42.2107 C.3 0 **** -0.106
2494 C 86.7047 38.0469 41.6535 C.3 0 **** -0.053
2495 C 85.3469 38.0285 40.8877 C.3 0 **** -0.053
2496 C 84.4248 36.8493 41.2948 C.3 0 **** -0.106
2497 C 85.5318 36.2146 47.0258 C.2 0 **** 0.042
2498 C 86.7893 35.8034 47.4136 C.2 0 **** 0.052
2499 C 87.766 35.4918 46.4798 C.2 0 **** 0.052
2500 C 87.4769 35.572 45.1433 C.2 0 **** 0.042
2501 C 89.1438 35.0286 46.8747 C.2 0 **** 0.367
2502 C 89.4144 34.9233 48.3388 C.2 0 **** 0
2503 C 88.4722 35.2076 49.2458 C.2 0 **** 0
2504 C 87.1106 35.6661 48.8801 C.2 0 **** 0.367
2505 C 88.7579 35.109 50.7268 C.3 0 **** -0.106
2506 C 90.224 35.5367 50.9873 C.3 0 **** -0.106
2507 C 91.1893 34.7537 50.097 C.2 0 **** 0
2508 C 90.7933 34.4589 48.7726 C.2 0 **** 0.2405
2509 N 91.5983 33.7945 47.9164 N.2 0 **** -0.481
2510 C 92.83 33.4988 48.3192 C.2 0 **** 0.2405
2511 C 93.2747 33.74 49.64 C.2 0 **** 0
2512 C 92.4325 34.3617 50.5273 C.2 0 **** 0
2513 C 92.867 34.667 51.9553 C.3 0 **** -0.106
2514 C 94.1154 33.8831 52.3783 C.3 0 **** -0.106
2515 C 95.1736 33.9319 51.2813 C.3 0 **** -0.106
2516 C 94.6426 33.2286 50.0177 C.3 0 **** -0.053
2517 C 95.6185 33.3992 48.8237 C.3 0 **** -0.106
2518 C 95.0211 32.7856 47.5854 C.2 0 **** 0
2519 C 93.6477 32.8675 47.3483 C.2 0 **** 0
2520 C 93.1198 32.3278 46.1617 C.2 0 **** -0.1268
2521 C 93.9684 31.7515 45.2363 C.2 0 **** -0.1268
2522 C 95.3356 31.7045 45.4448 C.2 0 **** 0
2523 C 95.8616 32.2421 46.6192 C.2 0 **** 0
2524 C 79.8095 40.1346 52.3145 C.3 0 **** -0.106
2525 C 80.4705 41.5293 52.2944 C.3 0 **** -0.159
2526 C 77.108 40.6392 51.3808 C.3 0 **** -0.159
2527 C 81.7473 38.8936 50.4648 C.3 0 **** -0.159
2528 C 76.2342 39.576 48.8454 C.3 0 **** -0.159
2529 C 77.3971 37.6625 44.3562 C.3 0 **** -0.159
2530 C 79.3977 37.0785 42.3885 C.3 0 **** -0.159
2531 O 81.8345 35.9774 42.1827 O.3 0 **** -0.452
2532 C 85.4966 37.9169 39.3691 C.3 0 **** -0.159
2533 C 87.8876 38.5273 40.8045 C.3 0 **** -0.159
2534 O 88.3511 35.1732 44.1684 O.3 0 **** -0.452
2535 O 84.5942 36.436 47.981 O.3 0 **** -0.452
2536 O 86.3002 35.9093 49.715 O.2 0 **** -0.419
2537 O 89.9783 34.8032 46.0472 O.2 0 **** -0.419
2538 C 97.3658 32.2332 46.8338 C.3 0 **** -0.159
2539 C 96.2055 31.0846 44.3696 C.3 0 **** -0.159
2540 H 81.7803 38.7128 47.859 H 0 **** 0.053
2541 H 81.2753 37.0874 48.4104 H 0 **** 0.053
2542 H 77.4157 37.4572 47.2278 H 0 **** 0.053
2543 H 77.5605 39.1076 46.565 H 0 **** 0.053
2544 H 82.943 37.195 47.0657 H 0 **** 0.1268
2545 H 88.0501 36.7193 42.6679 H 0 **** 0.053
2546 H 87.0955 35.9275 41.4057 H 0 **** 0.053
2547 H 86.6037 38.7387 42.5089 H 0 **** 0.053
2548 H 84.8286 38.9685 41.119 H 0 **** 0.053
2549 H 84.6704 35.977 40.6826 H 0 **** 0.053
2550 H 83.3904 37.1315 41.0641 H 0 **** 0.053
2551 H 88.0835 35.7397 51.3342 H 0 **** 0.053
2552 H 88.5933 34.0662 51.0489 H 0 **** 0.053
2553 H 90.417 35.4051 52.0659 H 0 **** 0.053
2554 H 90.3158 36.6272 50.7958 H 0 **** 0.053
2555 H 93.0769 35.7498 52.0501 H 0 **** 0.053
2556 H 92.0654 34.4372 52.6803 H 0 **** 0.053
2557 H 93.8464 32.827 52.5705 H 0 **** 0.053
2558 H 94.5175 34.2797 53.3292 H 0 **** 0.053
2559 H 96.1153 33.4525 51.6103 H 0 **** 0.053
2560 H 95.4171 34.9837 51.0451 H 0 **** 0.053
2561 H 94.5685 32.1376 50.2478 H 0 **** 0.053
2562 H 95.8058 34.485 48.6606 H 0 **** 0.053
2563 H 96.5967 32.952 49.105 H 0 **** 0.053
2564 H 92.0425 32.365 45.9574 H 0 **** 0.1268
2565 H 93.5486 31.3345 44.3066 H 0 **** 0.1268
2566 H 80.5052 39.4104 52.7817 H 0 **** 0.053
2567 H 78.9583 40.1554 53.0179 H 0 **** 0.053
2568 H 79.784 42.287 51.8822 H 0 **** 0.053
2569 H 81.3856 41.5317 51.6798 H 0 **** 0.053
2570 H 80.7577 41.8615 53.3122 H 0 **** 0.053
2571 H 76.3338 41.1788 50.801 H 0 **** 0.053
2572 H 77.5859 41.4254 51.9958 H 0 **** 0.053
2573 H 76.5771 39.9545 52.0782 H 0 **** 0.053
2574 H 82.4301 39.4439 49.7791 H 0 **** 0.053
2575 H 82.0383 37.8219 50.4213 H 0 **** 0.053
2576 H 82.0188 39.2354 51.4747 H 0 **** 0.053
2577 H 75.9097 38.8177 48.1069 H 0 **** 0.053
2578 H 76.0461 40.5715 48.3854 H 0 **** 0.053
2579 H 75.5279 39.4636 49.69 H 0 **** 0.053
2580 H 77.1027 36.943 43.5719 H 0 **** 0.053
2581 H 77.1604 38.685 43.9824 H 0 **** 0.053
2582 H 76.691 37.4548 45.1923 H 0 **** 0.053
2583 H 80.1451 37.5279 41.6977 H 0 **** 0.053
2584 H 78.4594 37.6451 42.1396 H 0 **** 0.053
2585 H 79.2221 36.0251 42.0473 H 0 **** 0.053
2586 H 82.5827 35.4722 41.8538 H 0 **** 0.41
2587 H 86.0128 38.7891 38.9463 H 0 **** 0.053
2588 H 84.5029 37.8569 38.886 H 0 **** 0.053
2589 H 86.0553 37.0032 39.0857 H 0 **** 0.053
2590 H 88.8064 38.593 41.4171 H 0 **** 0.053
2591 H 87.6993 39.5262 40.3832 H 0 **** 0.053
2592 H 88.1029 37.8271 39.9729 H 0 **** 0.053
2593 H 89.2013 34.9726 44.5878 H 0 **** 0.41
2594 H 84.982 36.3183 48.8611 H 0 **** 0.41
2595 H 97.7398 33.2332 47.1229 H 0 **** 0.053
2596 H 97.9412 31.9527 45.9309 H 0 **** 0.053
2597 H 97.6633 31.5182 47.6286 H 0 **** 0.053
2598 H 96.9072 31.8189 43.9334 H 0 **** 0.053
2599 H 95.609 30.6865 43.53 H 0 **** 0.053
2600 H 96.8019 30.2409 44.7588 H 0 **** 0.053
2601 C1 72.3995 57.4413 48.0772 C.ar 0 **** 0.042
2602 C2 71.0812 57.514 47.6673 C.ar 0 **** -0.1268
2603 C3 70.17 58.3003 48.3529 C.ar 0 **** 0
2604 C4 70.5569 59.0372 49.4731 C.ar 0 **** 0
2605 C5 71.8952 58.9673 49.8714 C.ar 0 **** -0.1268
2606 C6 72.8123 58.1731 49.1992 C.ar 0 **** 0
2607 C7 69.3777 59.7401 49.955 C.ar 0 **** 0
2608 C8 68.3259 59.4233 49.1133 C.ar 0 **** 0
2609 C9 68.7192 58.4834 48.0258 C.3 0 **** -0.106
2610 C10 67.0686 59.9755 49.3321 C.ar 0 **** 0
2611 C11 66.8489 60.8623 50.4068 C.ar 0 **** 0
2612 C12 67.9636 61.1443 51.2431 C.ar 0 **** 0
2613 C13 69.2256 60.5782 51.0313 C.ar 0 **** 0
2614 C14 70.372 60.9116 51.9441 C.3 0 **** -0.106
2615 C15 69.8775 61.1798 53.3657 C.3 0 **** -0.106
2616 C16 68.9442 62.3584 53.3094 C.3 0 **** -0.106
2617 C17 67.7481 62.0954 52.4191 C.ar 0 **** 0
2618 C18 66.5558 62.6987 52.6603 C.ar 0 **** 0
2619 C19 65.4808 62.4645 51.8497 C.ar 0 **** 0
2620 C20 65.5578 61.4523 50.6399 C.ar 0 **** 0
2621 C21 64.4812 61.0379 49.7576 C.ar 0 **** 0
2622 C22 64.8021 60.179 48.701 C.ar 0 **** 0
2623 C23 66.0263 59.6516 48.4788 C.ar 0 **** 0.042
2624 C24 64.1702 63.1872 52.1242 C.3 0 **** -0.106
2625 C25 64.2172 64.3404 53.1688 C.ar 0 **** 0
2626 C26 65.318 64.5069 53.9727 C.ar 0 **** 0
2627 C27 66.524 63.6319 53.8674 C.3 0 **** -0.106
2628 C28 65.3389 65.5056 54.944 C.ar 0 **** 0.042
2629 C29 64.2635 66.3523 55.1503 C.ar 0 **** 0
2630 C30 63.166 66.1767 54.3217 C.ar 0 **** 0
2631 C31 63.1265 65.1883 53.3417 C.ar 0 **** 0
2632 C32 61.9146 67.0606 54.4486 C.ar 0 **** 0
2633 C33 62.0079 68.1232 55.5483 C.3 0 **** -0.106
2634 C34 62.8782 67.6798 56.7223 C.3 0 **** -0.106
2635 C35 64.2936 67.4318 56.2055 C.3 0 **** -0.106
2636 C36 61.8769 65.0843 52.4909 C.ar 0 **** -0.1268
2637 C37 60.8332 65.9283 52.7041 C.ar 0 **** 0.0265
2638 C38 60.8368 66.8832 53.6448 C.ar 0 **** -0.1268
2639 C39 63.6993 59.805 47.7817 C.3 0 **** -0.106
2640 C40 62.6026 60.54 48.4811 C.ar 0 **** 0
2641 C41 63.0415 61.2447 49.6037 C.ar 0 **** 0
2642 C42 62.035 61.9169 50.3279 C.ar 0 **** -0.1268
2643 C43 60.687 61.9114 49.9128 C.ar 0 **** 0
2644 C44 60.2852 61.2033 48.7603 C.ar 0 **** 0
2645 C45 61.2684 60.5005 48.0458 C.ar 0 **** 0
2646 C46 60.8818 59.7585 46.9084 C.ar 0 **** -0.1268
2647 C47 59.569 59.7004 46.4663 C.ar 0 **** 0
2648 C48 58.6158 60.3969 47.1861 C.ar 0 **** -0.1268
2649 C49 58.9381 61.1507 48.3269 C.ar 0 **** 0
2650 C50 57.968 61.8505 49.0664 C.ar 0 **** 0.042
2651 C51 58.3301 62.5596 50.1946 C.ar 0 **** -0.1268
2652 C52 59.6553 62.5879 50.6205 C.ar 0 **** -0.1268
2653 O53 73.3077 56.6643 47.3984 O.3 0 **** -0.452
2654 C54 74.2625 58.1195 49.6546 C.3 0 **** -0.159
2655 O55 66.2155 58.8206 47.4391 O.3 0 **** -0.452
2656 C56 59.298 58.8529 45.2281 C.3 0 **** -0.106
2657 C57 57.8616 58.9917 44.7117 C.3 0 **** -0.159
2658 O58 59.7439 65.7937 51.9299 O.3 0 **** -0.4365
2659 O59 66.4226 65.7032 55.7561 O.3 0 **** -0.452
2660 O60 56.6567 61.8843 48.7585 O.3 0 **** -0.452
2661 H61 70.7152 56.9509 46.7782 H 0 **** 0.1268
2662 H62 72.3076 59.5309 50.7192 H 0 **** 0.1268
2663 H63 68.1942 57.5121 48.0709 H 0 **** 0.053
2664 H64 68.6127 58.911 47.0119 H 0 **** 0.053
2665 H65 71.0838 60.0939 52.0099 H 0 **** 0.053
2666 H66 70.9119 61.814 51.5816 H 0 **** 0.053
2667 H67 69.3744 60.2727 53.7811 H 0 **** 0.053
2668 H68 70.7499 61.3922 54.0518 H 0 **** 0.053
2669 H69 68.6293 62.5941 54.3334 H 0 **** 0.053
2670 H70 69.5024 63.2354 52.9372 H 0 **** 0.053
2671 H71 63.8075 63.6176 51.1671 H 0 **** 0.053
2672 H72 67.4035 64.2794 53.794 H 0 **** 0.053
2673 H73 62.4274 69.0512 55.1091 H 0 **** 0.053
2674 H74 60.9841 68.3577 55.8713 H 0 **** 0.053
2675 H75 62.8862 68.4566 57.4968 H 0 **** 0.053
2676 H76 62.467 66.7698 57.1821 H 0 **** 0.053
2677 H77 64.7027 68.3519 55.7666 H 0 **** 0.053
2678 H78 64.9487 67.1438 57.0201 H 0 **** 0.053
2679 H79 61.8582 64.3392 51.7189 H 0 **** 0.1268
2680 H80 59.9963 67.5441 53.7874 H 0 **** 0.1268
2681 H81 63.8383 60.1864 46.7578 H 0 **** 0.053
2682 H82 63.4953 58.7224 47.7628 H 0 **** 0.053
2683 H83 62.19 62.4583 51.2497 H 0 **** 0.1268
2684 H84 61.6459 59.1993 46.3378 H 0 **** 0.1268
2685 H85 57.5845 60.3496 46.846 H 0 **** 0.1268
2686 H86 57.5859 63.1107 50.793 H 0 **** 0.1268
2687 H87 59.933 63.1378 51.5637 H 0 **** 0.1268
2688 H88 72.8558 56.2457 46.6781 H 0 **** 0.41
2689 H89 74.6943 57.129 49.4695 H 0 **** 0.053
2690 H90 74.3625 58.3162 50.731 H 0 **** 0.053
2691 H91 74.8677 58.8596 49.107 H 0 **** 0.053
2692 H92 65.4069 58.6999 46.9609 H 0 **** 0.41
2693 H93 59.9848 59.1442 44.4267 H 0 **** 0.053
2694 H94 57.6986 58.3737 43.8067 H 0 **** 0.053
2695 H95 57.6244 60.0375 44.437 H 0 **** 0.053
2696 H96 57.1224 58.6577 45.4636 H 0 **** 0.053
2697 H97 59.8852 65.1562 51.2484 H 0 **** 0.41
2698 H98 67.0979 65.0755 55.5557 H 0 **** 0.41
2699 H99 56.5025 61.3666 47.9787 H 0 **** 0.41
2700 H100 63.4768 62.4288 52.5414 H 0 **** 0.053
2701 H101 66.6046 63.014 54.7693 H 0 **** 0.053
2702 H102 59.4916 57.7983 45.4552 H 0 **** 0.053
2703 C1 36.8407 84.8959 59.5203 C.ar 0 **** 0.042
2704 C2 38.1528 84.4632 59.4725 C.ar 0 **** -0.1268
2705 C3 38.9783 84.5862 60.5779 C.ar 0 **** 0
2706 C4 38.5091 85.1495 61.7655 C.ar 0 **** 0
2707 C5 37.1768 85.5713 61.8077 C.ar 0 **** -0.1268
2708 C6 36.3461 85.464 60.7024 C.ar 0 **** 0
2709 C7 39.612 85.136 62.7143 C.ar 0 **** 0
2710 C8 40.7008 84.5583 62.085 C.ar 0 **** 0
2711 C9 40.4111 84.1597 60.6786 C.3 0 **** -0.106
2712 C10 41.8993 84.4012 62.7723 C.ar 0 **** 0
2713 C11 42.0211 84.8234 64.1129 C.ar 0 **** 0
2714 C12 40.8729 85.4176 64.7047 C.ar 0 **** 0
2715 C13 39.6709 85.5884 64.0089 C.ar 0 **** 0
2716 C14 38.4853 86.2207 64.6823 C.3 0 **** -0.106
2717 C15 38.9316 87.2575 65.7134 C.3 0 **** -0.106
2718 C16 39.7548 86.5439 66.751 C.3 0 **** -0.106
2719 C17 40.9833 85.8911 66.1531 C.ar 0 **** 0
2720 C18 42.112 85.7275 66.8901 C.ar 0 **** 0
2721 C19 43.2159 85.1308 66.3489 C.ar 0 **** 0
2722 C20 43.2496 84.6566 64.8427 C.ar 0 **** 0
2723 C21 44.3725 84.0961 64.1119 C.ar 0 **** 0
2724 C22 44.1471 83.6778 62.7958 C.ar 0 **** 0
2725 C23 42.9796 83.8186 62.1298 C.ar 0 **** 0.042
2726 C24 44.4512 84.9272 67.2141 C.3 0 **** -0.106
2727 C25 44.2841 85.1906 68.7392 C.ar 0 **** 0
2728 C26 43.1606 85.8189 69.2177 C.ar 0 **** 0
2729 C27 42.0407 86.2434 68.3247 C.3 0 **** -0.106
2730 C28 43.0338 86.1024 70.576 C.ar 0 **** 0.042
2731 C29 44.0247 85.7833 71.4884 C.ar 0 **** 0
2732 C30 45.1461 85.1391 70.9889 C.ar 0 **** 0
2733 C31 45.2905 84.8418 69.6361 C.ar 0 **** 0
2734 C32 46.3101 84.7276 71.9045 C.ar 0 **** 0
2735 C33 46.1042 85.0874 73.3792 C.3 0 **** -0.106
2736 C34 45.2597 86.3464 73.5645 C.3 0 **** -0.106
2737 C35 43.8806 86.095 72.9588 C.3 0 **** -0.106
2738 C36 46.5577 84.1347 69.1982 C.ar 0 **** -0.1268
2739 C37 47.5177 83.8245 70.1091 C.ar 0 **** 0.0265
2740 C38 47.4126 84.1082 71.4149 C.ar 0 **** -0.1268
2741 C39 45.2931 83.0633 62.0812 C.3 0 **** -0.106
2742 C40 46.3078 83.2192 63.1667 C.ar 0 **** 0
2743 C41 45.7897 83.8033 64.3244 C.ar 0 **** 0
2744 C42 46.7198 84.0169 65.363 C.ar 0 **** -0.1268
2745 C43 48.0688 83.621 65.2495 C.ar 0 **** 0
2746 C44 48.5507 83.0149 64.0697 C.ar 0 **** 0
2747 C45 47.6465 82.8252 63.0123 C.ar 0 **** 0
2748 C46 48.1159 82.2504 61.8109 C.ar 0 **** -0.1268
2749 C47 49.4352 81.8619 61.635 C.ar 0 **** 0
2750 C48 50.3098 82.0602 62.6877 C.ar 0 **** -0.1268
2751 C49 49.9034 82.6287 63.9069 C.ar 0 **** 0
2752 C50 50.794 82.8404 64.9746 C.ar 0 **** 0.042
2753 C51 50.3522 83.425 66.1452 C.ar 0 **** -0.1268
2754 C52 49.0237 83.8173 66.2853 C.ar 0 **** -0.1268
2755 O53 36.0171 84.7742 58.4268 O.3 0 **** -0.452
2756 C54 34.9 85.929 60.7794 C.3 0 **** -0.159
2757 O55 42.8838 83.3961 60.8567 O.3 0 **** -0.452
2758 C56 49.8003 81.2632 60.2807 C.3 0 **** -0.106
2759 C57 51.2257 80.7015 60.2406 C.3 0 **** -0.159
2760 O58 48.6262 83.2031 69.672 O.3 0 **** -0.4365
2761 O59 41.9238 86.7193 71.0864 O.3 0 **** -0.452
2762 O60 52.1009 82.5132 64.9503 O.3 0 **** -0.452
2763 H61 38.5814 84.0022 58.5533 H 0 **** 0.1268
2764 H62 36.702 85.9986 62.7014 H 0 **** 0.1268
2765 H63 41.0214 84.7001 59.9325 H 0 **** 0.053
2766 H64 40.4937 83.0715 60.5015 H 0 **** 0.053
2767 H65 37.8497 86.7406 63.9713 H 0 **** 0.053
2768 H66 37.8711 85.4504 65.1988 H 0 **** 0.053
2769 H67 39.5088 88.0762 65.2183 H 0 **** 0.053
2770 H68 38.0333 87.7535 66.1865 H 0 **** 0.053
2771 H69 40.0315 87.2694 67.5259 H 0 **** 0.053
2772 H70 39.1249 85.7798 67.2395 H 0 **** 0.053
2773 H71 44.7877 83.8763 67.0916 H 0 **** 0.053
2774 H72 41.1071 85.866 68.7539 H 0 **** 0.053
2775 H73 45.6092 84.2339 73.886 H 0 **** 0.053
2776 H74 47.0975 85.1964 73.8363 H 0 **** 0.053
2777 H75 45.1697 86.583 74.6319 H 0 **** 0.053
2778 H76 45.7451 87.2075 73.0831 H 0 **** 0.053
2779 H77 43.3964 85.2462 73.4603 H 0 **** 0.053
2780 H78 43.2423 86.9601 73.0994 H 0 **** 0.053
2781 H79 46.6552 83.8824 68.1595 H 0 **** 0.1268
2782 H80 48.1866 83.8485 72.1193 H 0 **** 0.1268
2783 H81 45.1357 82.0004 61.8394 H 0 **** 0.053
2784 H82 45.595 83.6208 61.1802 H 0 **** 0.053
2785 H83 46.5022 84.5089 66.2998 H 0 **** 0.1268
2786 H84 47.415 82.0958 60.9704 H 0 **** 0.1268
2787 H85 51.3464 81.7619 62.5521 H 0 **** 0.1268
2788 H86 51.0343 83.608 66.9916 H 0 **** 0.1268
2789 H87 48.6828 84.3281 67.2297 H 0 **** 0.1268
2790 H88 36.5134 84.3734 57.7264 H 0 **** 0.41
2791 H89 34.5625 86.32 59.8124 H 0 **** 0.053
2792 H90 34.7659 86.7347 61.5145 H 0 **** 0.053
2793 H91 34.2382 85.0922 61.0546 H 0 **** 0.053
2794 H92 43.7063 83.0215 60.5734 H 0 **** 0.41
2795 H93 49.1024 80.4562 60.0355 H 0 **** 0.053
2796 H94 51.4577 80.2654 59.2487 H 0 **** 0.053
2797 H95 51.3719 79.9003 60.9904 H 0 **** 0.053
2798 H96 51.9804 81.4885 60.4268 H 0 **** 0.053
2799 H97 48.5498 82.9793 68.7581 H 0 **** 0.41
2800 H98 41.3137 86.9147 70.3938 H 0 **** 0.41
2801 H99 52.3155 82.1352 64.1068 H 0 **** 0.41
2802 H100 45.2043 85.6608 66.8609 H 0 **** 0.053
2803 H101 42.003 87.3383 68.2843 H 0 **** 0.053
2804 H102 49.7013 82.0274 59.5015 H 0 **** 0.053
2805 C1 23.3691 20.2042 23.295 C.ar 0 **** 0.042
2806 C2 22.938 18.8982 23.1547 C.ar 0 **** -0.1268
2807 C3 23.1466 18.2079 21.9723 C.ar 0 **** 0
2808 C4 23.7945 18.8111 20.8934 C.ar 0 **** 0
2809 C5 24.2371 20.1282 21.0498 C.ar 0 **** -0.1268
2810 C6 24.0218 20.8322 22.2254 C.ar 0 **** 0
2811 C7 23.847 17.8306 19.8197 C.ar 0 **** 0
2812 C8 23.249 16.6704 20.2796 C.ar 0 **** 0
2813 C9 22.7456 16.7947 21.6766 C.3 0 **** -0.106
2814 C10 23.175 15.5518 19.4568 C.ar 0 **** 0
2815 C11 23.7062 15.5827 18.1504 C.ar 0 **** 0
2816 C12 24.3003 16.8038 17.729 C.ar 0 **** 0
2817 C13 24.363 17.9337 18.552 C.ar 0 **** 0
2818 C14 25.004 19.2001 18.0582 C.3 0 **** -0.106
2819 C15 24.8122 19.3563 16.5495 C.3 0 **** -0.106
2820 C16 25.4773 18.1839 15.8813 C.3 0 **** -0.106
2821 C17 24.8746 16.8643 16.3147 C.ar 0 **** 0
2822 C18 24.8703 15.794 15.479 C.ar 0 **** 0
2823 C19 24.332 14.6026 15.877 C.ar 0 **** 0
2824 C20 23.6494 14.4306 17.2907 C.ar 0 **** 0
2825 C21 22.9606 13.2617 17.8089 C.ar 0 **** 0
2826 C22 22.4943 13.3145 19.1268 C.ar 0 **** 0
2827 C23 22.5772 14.3962 19.9328 C.ar 0 **** 0.042
2828 C24 24.3791 13.4115 14.9309 C.3 0 **** -0.106
2829 C25 25.2659 13.5661 13.6609 C.ar 0 **** 0
2830 C26 25.7553 14.7973 13.3 C.ar 0 **** 0
2831 C27 25.5016 16.0271 14.1093 C.3 0 **** -0.106
2832 C28 26.5043 14.9456 12.1345 C.ar 0 **** 0.042
2833 C29 26.7726 13.8797 11.2931 C.ar 0 **** 0
2834 C30 26.2808 12.6426 11.68 C.ar 0 **** 0
2835 C31 25.5343 12.4717 12.8429 C.ar 0 **** 0
2836 C32 26.5205 11.382 10.8329 C.ar 0 **** 0
2837 C33 27.3364 11.6298 9.55998 C.3 0 **** -0.106
2838 C34 27.1261 13.0309 8.98956 C.3 0 **** -0.106
2839 C35 27.5845 14.0489 10.0313 C.3 0 **** -0.106
2840 C36 25.0456 11.0755 13.1715 C.ar 0 **** -0.1268
2841 C37 25.3252 10.0397 12.3372 C.ar 0 **** 0.0265
2842 C38 26.0323 10.1731 11.2062 C.ar 0 **** -0.1268
2843 C39 21.8364 12.094 19.655 C.3 0 **** -0.106
2844 C40 21.9193 11.2715 18.4103 C.ar 0 **** 0
2845 C41 22.5595 11.9292 17.3582 C.ar 0 **** 0
2846 C42 22.6207 11.2127 16.1447 C.ar 0 **** -0.1268
2847 C43 22.1098 9.90345 16.0243 C.ar 0 **** 0
2848 C44 21.4869 9.26412 17.1171 C.ar 0 **** 0
2849 C45 21.3868 9.97527 18.3236 C.ar 0 **** 0
2850 C46 20.738 9.36602 19.4196 C.ar 0 **** -0.1268
2851 C47 20.1989 8.09036 19.3525 C.ar 0 **** 0
2852 C48 20.3052 7.4086 18.1543 C.ar 0 **** -0.1268
2853 C49 20.9378 7.96176 17.0285 C.ar 0 **** 0
2854 C50 21.0392 7.27268 15.8069 C.ar 0 **** 0.042
2855 C51 21.6477 7.86863 14.7198 C.ar 0 **** -0.1268
2856 C52 22.1664 9.15726 14.8148 C.ar 0 **** -0.1268
2857 O53 23.1677 20.8893 24.4694 O.3 0 **** -0.452
2858 C54 24.5162 22.2635 22.3668 C.3 0 **** -0.159
2859 O55 22.078 14.3382 21.1797 O.3 0 **** -0.452
2860 C56 19.52 7.56444 20.6124 C.3 0 **** -0.106
2861 C57 19.1159 6.09002 20.5024 C.3 0 **** -0.159
2862 O58 24.8659 8.82186 12.6678 O.3 0 **** -0.4365
2863 O59 27.013 16.1563 11.7499 O.3 0 **** -0.452
2864 O60 20.5687 6.02783 15.5959 O.3 0 **** -0.452
2865 H61 22.417 18.3635 23.982 H 0 **** 0.1268
2866 H62 24.7813 20.6824 20.273 H 0 **** 0.1268
2867 H63 21.6493 16.6848 21.762 H 0 **** 0.053
2868 H64 23.2394 16.1066 22.3872 H 0 **** 0.053
2869 H65 24.5653 20.0792 18.5212 H 0 **** 0.053
2870 H66 26.0945 19.1985 18.2777 H 0 **** 0.053
2871 H67 23.7248 19.4138 16.2982 H 0 **** 0.053
2872 H68 25.2643 20.3291 16.1942 H 0 **** 0.053
2873 H69 25.395 18.3174 14.7956 H 0 **** 0.053
2874 H70 26.5544 18.2013 16.1245 H 0 **** 0.053
2875 H71 24.7582 12.5361 15.4988 H 0 **** 0.053
2876 H72 26.4634 16.5209 14.2809 H 0 **** 0.053
2877 H73 28.4106 11.485 9.79472 H 0 **** 0.053
2878 H74 27.0615 10.8531 8.8329 H 0 **** 0.053
2879 H75 27.7019 13.1485 8.06325 H 0 **** 0.053
2880 H76 26.0683 13.1863 8.73347 H 0 **** 0.053
2881 H77 28.6472 13.8989 10.2651 H 0 **** 0.053
2882 H78 27.4778 15.0575 9.64755 H 0 **** 0.053
2883 H79 24.4914 10.9414 14.0805 H 0 **** 0.1268
2884 H80 26.244 9.33167 10.5649 H 0 **** 0.1268
2885 H81 22.3947 11.6205 20.4778 H 0 **** 0.053
2886 H82 20.7868 12.2565 19.9481 H 0 **** 0.053
2887 H83 23.0255 11.5944 15.2188 H 0 **** 0.1268
2888 H84 20.6502 9.91598 20.3747 H 0 **** 0.1268
2889 H85 19.8777 6.41084 18.0961 H 0 **** 0.1268
2890 H86 21.7292 7.35248 13.7489 H 0 **** 0.1268
2891 H87 22.6266 9.64844 13.9112 H 0 **** 0.1268
2892 H88 22.7 20.3157 25.0621 H 0 **** 0.41
2893 H89 23.8433 22.8492 23.0042 H 0 **** 0.053
2894 H90 24.5659 22.778 21.397 H 0 **** 0.053
2895 H91 25.5183 22.2836 22.8242 H 0 **** 0.053
2896 H92 21.6992 13.486 21.3452 H 0 **** 0.41
2897 H93 20.1951 7.67666 21.4671 H 0 **** 0.053
2898 H94 18.6357 5.73452 21.4355 H 0 **** 0.053
2899 H95 19.9911 5.43759 20.3193 H 0 **** 0.053
2900 H96 18.3874 5.92538 19.6865 H 0 **** 0.053
2901 H97 24.453 8.83178 13.516 H 0 **** 0.41
2902 H98 26.771 16.8239 12.3713 H 0 **** 0.41
2903 H99 20.1397 5.71546 16.3825 H 0 **** 0.41
2904 H100 23.3436 13.2653 14.5614 H 0 **** 0.053
2905 H101 24.844 16.7019 13.549 H 0 **** 0.053
2906 H102 18.6254 8.16121 20.8243 H 0 **** 0.053
2907 C1 0.0921034 15.4518 33.6877 C.ar 0 **** 0.042
2908 C2 0.336796 15.9095 32.4063 C.ar 0 **** -0.1268
2909 C3 1.57041 15.7115 31.8084 C.ar 0 **** 0
2910 C4 2.59675 15.0476 32.4818 C.ar 0 **** 0
2911 C5 2.33475 14.577 33.772 C.ar 0 **** -0.1268
2912 C6 1.10715 14.7813 34.3841 C.ar 0 **** 0
2913 C7 3.74549 15.0125 31.5897 C.ar 0 **** 0
2914 C8 3.38084 15.6365 30.4096 C.ar 0 **** 0
2915 C9 1.97905 16.1414 30.4323 C.3 0 **** -0.106
2916 C10 4.29093 15.7318 29.3625 C.ar 0 **** 0
2917 C11 5.58975 15.1957 29.4865 C.ar 0 **** 0
2918 C12 5.91102 14.5741 30.7242 C.ar 0 **** 0
2919 C13 4.99994 14.4899 31.7829 C.ar 0 **** 0
2920 C14 5.38949 13.8197 33.0704 C.3 0 **** -0.106
2921 C15 6.88114 14.0023 33.3513 C.3 0 **** -0.106
2922 C16 7.64003 13.3606 32.2218 C.3 0 **** -0.106
2923 C17 7.31489 13.9935 30.8854 C.ar 0 **** 0
2924 C18 8.23366 14.0181 29.8859 C.ar 0 **** 0
2925 C19 7.93342 14.5835 28.6785 C.ar 0 **** 0
2926 C20 6.53917 15.2745 28.4087 C.ar 0 **** 0
2927 C21 6.11736 15.9901 27.2174 C.ar 0 **** 0
2928 C22 4.80022 16.4596 27.1745 C.ar 0 **** 0
2929 C23 3.91011 16.3563 28.186 C.ar 0 **** 0.042
2930 C24 8.97181 14.5591 27.5665 C.3 0 **** -0.106
2931 C25 10.2239 13.6651 27.8034 C.ar 0 **** 0
2932 C26 10.4841 13.1476 29.0484 C.ar 0 **** 0
2933 C27 9.57906 13.377 30.2143 C.3 0 **** -0.106
2934 C28 11.6328 12.3918 29.2733 C.ar 0 **** 0.042
2935 C29 12.5567 12.144 28.2728 C.ar 0 **** 0
2936 C30 12.2713 12.6647 27.0201 C.ar 0 **** 0
2937 C31 11.127 13.4185 26.7728 C.ar 0 **** 0
2938 C32 13.2169 12.4504 25.8271 C.ar 0 **** 0
2939 C33 14.464 11.6241 26.1576 C.3 0 **** -0.106
2940 C34 14.9206 11.8012 27.604 C.3 0 **** -0.106
2941 C35 13.7995 11.3242 28.5245 C.3 0 **** -0.106
2942 C36 10.9129 13.9399 25.3662 C.ar 0 **** -0.1268
2943 C37 11.8283 13.6821 24.3953 C.ar 0 **** 0.0265
2944 C38 12.9433 12.9678 24.6037 C.ar 0 **** -0.1268
2945 C39 4.37267 17.1457 25.9304 C.3 0 **** -0.106
2946 C40 5.6792 17.0768 25.209 C.ar 0 **** 0
2947 C41 6.67416 16.4189 25.9347 C.ar 0 **** 0
2948 C42 7.94122 16.3695 25.3169 C.ar 0 **** -0.1268
2949 C43 8.16719 16.9087 24.0334 C.ar 0 **** 0
2950 C44 7.13018 17.5491 23.3222 C.ar 0 **** 0
2951 C45 5.87056 17.6373 23.9361 C.ar 0 **** 0
2952 C46 4.82801 18.3031 23.2554 C.ar 0 **** -0.1268
2953 C47 4.99822 18.8697 22.0014 C.ar 0 **** 0
2954 C48 6.24718 18.7746 21.416 C.ar 0 **** -0.1268
2955 C49 7.32417 18.1271 22.0441 C.ar 0 **** 0
2956 C50 8.5979 18.0392 21.4548 C.ar 0 **** 0.042
2957 C51 9.63195 17.4122 22.1215 C.ar 0 **** -0.1268
2958 C52 9.43266 16.8643 23.3858 C.ar 0 **** -0.1268
2959 O53 -1.13136 15.6438 34.2839 O.3 0 **** -0.452
2960 C54 0.850827 14.2551 35.7879 C.3 0 **** -0.159
2961 O55 2.67297 16.8614 28.0394 O.3 0 **** -0.452
2962 C56 3.78555 19.5638 21.391 C.3 0 **** -0.106
2963 C57 4.01439 19.9996 19.9395 C.3 0 **** -0.159
2964 O58 11.5994 14.1719 23.1658 O.3 0 **** -0.4365
2965 O59 11.9185 11.856 30.4996 O.3 0 **** -0.452
2966 O60 8.91131 18.5424 20.2447 O.3 0 **** -0.452
2967 H61 -0.445174 16.4431 31.8187 H 0 **** 0.1268
2968 H62 3.06257 14.0166 34.3744 H 0 **** 0.1268
2969 H63 1.90423 17.2401 30.3399 H 0 **** 0.053
2970 H64 1.32504 15.6647 29.6791 H 0 **** 0.053
2971 H65 4.85782 14.2404 33.919 H 0 **** 0.053
2972 H66 5.16874 12.7303 33.0276 H 0 **** 0.053
2973 H67 7.12869 15.0872 33.4529 H 0 **** 0.053
2974 H68 7.156 13.5276 34.3392 H 0 **** 0.053
2975 H69 8.71159 13.4362 32.4438 H 0 **** 0.053
2976 H70 7.39452 12.2843 32.1962 H 0 **** 0.053
2977 H71 8.47545 14.2009 26.6402 H 0 **** 0.053
2978 H72 9.3668 12.4052 30.6713 H 0 **** 0.053
2979 H73 14.2391 10.5541 25.9712 H 0 **** 0.053
2980 H74 15.2515 11.9128 25.4478 H 0 **** 0.053
2981 H75 15.8332 11.2193 27.7827 H 0 **** 0.053
2982 H76 15.165 12.8545 27.8029 H 0 **** 0.053
2983 H77 13.5766 10.2658 28.3324 H 0 **** 0.053
2984 H78 14.101 11.4069 29.5627 H 0 **** 0.053
2985 H79 10.0175 14.4984 25.171 H 0 **** 0.1268
2986 H80 13.6493 12.772 23.8121 H 0 **** 0.1268
2987 H81 3.58976 16.6004 25.3801 H 0 **** 0.053
2988 H82 4.069 18.1924 26.0919 H 0 **** 0.053
2989 H83 8.8327 15.9526 25.7621 H 0 **** 0.1268
2990 H84 3.83181 18.381 23.7283 H 0 **** 0.1268
2991 H85 6.38612 19.2223 20.4353 H 0 **** 0.1268
2992 H86 10.64 17.3369 21.6816 H 0 **** 0.1268
2993 H87 10.2926 16.389 23.9368 H 0 **** 0.1268
2994 H88 -1.68558 16.1115 33.6739 H 0 **** 0.41
2995 H89 0.169147 14.9165 36.3353 H 0 **** 0.053
2996 H90 1.77582 14.1901 36.3775 H 0 **** 0.053
2997 H91 0.391389 13.2545 35.7484 H 0 **** 0.053
2998 H92 2.57586 17.2563 27.184 H 0 **** 0.41
2999 H93 2.92386 18.8889 21.4192 H 0 **** 0.053
3000 H94 3.11365 20.4903 19.5207 H 0 **** 0.053
3001 H95 4.24793 19.1379 19.2851 H 0 **** 0.053
3002 H96 4.84224 20.7284 19.8568 H 0 **** 0.053
3003 H97 10.7472 14.5743 23.1117 H 0 **** 0.41
3004 H98 11.2445 12.0836 31.1195 H 0 **** 0.41
3005 H99 8.14619 18.9593 19.8693 H 0 **** 0.41
3006 H100 9.35347 15.5963 27.473 H 0 **** 0.053
3007 H101 10.0844 14.0177 30.9462 H 0 **** 0.053
3008 H102 3.5277 20.4457 21.9885 H 0 **** 0.053
3009 C1 29.6128 79.8156 68.5705 C.ar 0 **** 0.042
3010 C2 30.7558 80.109 69.291 C.ar 0 **** -0.1268
3011 C3 31.2218 79.2393 70.2631 C.ar 0 **** 0
3012 C4 30.5521 78.0467 70.5402 C.ar 0 **** 0
3013 C5 29.4072 77.7512 69.7941 C.ar 0 **** -0.1268
3014 C6 28.9251 78.6215 68.8276 C.ar 0 **** 0
3015 C7 31.2866 77.3769 71.6027 C.ar 0 **** 0
3016 C8 32.3757 78.1678 71.9244 C.ar 0 **** 0
3017 C9 32.44 79.4185 71.117 C.3 0 **** -0.106
3018 C10 33.2686 77.7565 72.908 C.ar 0 **** 0
3019 C11 33.0796 76.5341 73.5862 C.ar 0 **** 0
3020 C12 31.9395 75.7676 73.2199 C.ar 0 **** 0
3021 C13 31.0334 76.1878 72.2397 C.ar 0 **** 0
3022 C14 29.8451 75.3378 71.8879 C.3 0 **** -0.106
3023 C15 29.3532 74.5566 73.1066 C.3 0 **** -0.106
3024 C16 30.4744 73.6594 73.5557 C.3 0 **** -0.106
3025 C17 31.7093 74.4436 73.9462 C.ar 0 **** 0
3026 C18 32.5673 73.9675 74.8848 C.ar 0 **** 0
3027 C19 33.685 74.6747 75.2284 C.ar 0 **** 0
3028 C20 34.0007 76.0873 74.5967 C.ar 0 **** 0
3029 C21 35.0917 76.9861 74.9299 C.ar 0 **** 0
3030 C22 35.2154 78.1618 74.1818 C.ar 0 **** 0
3031 C23 34.3563 78.5571 73.2163 C.ar 0 **** 0.042
3032 C24 34.6466 74.0943 76.2551 C.3 0 **** -0.106
3033 C25 34.4161 72.6099 76.6634 C.ar 0 **** 0
3034 C26 33.2583 71.9624 76.3086 C.ar 0 **** 0
3035 C27 32.1919 72.6201 75.4952 C.3 0 **** -0.106
3036 C28 33.0282 70.6509 76.7189 C.ar 0 **** 0.042
3037 C29 33.9338 69.9567 77.5026 C.ar 0 **** 0
3038 C30 35.1017 70.6226 77.8411 C.ar 0 **** 0
3039 C31 35.3536 71.9312 77.4373 C.ar 0 **** 0
3040 C32 36.1868 69.954 78.7007 C.ar 0 **** 0
3041 C33 35.8535 68.5203 79.1255 C.3 0 **** -0.106
3042 C34 34.353 68.2895 79.2908 C.3 0 **** -0.106
3043 C35 33.677 68.5357 77.9439 C.3 0 **** -0.106
3044 C36 36.663 72.5639 77.8633 C.ar 0 **** -0.1268
3045 C37 37.5426 71.8649 78.628 C.ar 0 **** 0.0265
3046 C38 37.3252 70.6081 79.0404 C.ar 0 **** -0.1268
3047 C39 36.3639 79.0441 74.5038 C.3 0 **** -0.106
3048 C40 36.918 78.2407 75.635 C.ar 0 **** 0
3049 C41 36.2005 77.0683 75.8802 C.ar 0 **** 0
3050 C42 36.6551 76.2975 76.9704 C.ar 0 **** -0.1268
3051 C43 37.7863 76.6687 77.7267 C.ar 0 **** 0
3052 C44 38.4978 77.852 77.4355 C.ar 0 **** 0
3053 C45 38.0395 78.6491 76.3745 C.ar 0 **** 0
3054 C46 38.7177 79.8538 76.0875 C.ar 0 **** -0.1268
3055 C47 39.8222 80.2787 76.81 C.ar 0 **** 0
3056 C48 40.2552 79.4808 77.8528 C.ar 0 **** -0.1268
3057 C49 39.6209 78.2729 78.1883 C.ar 0 **** 0
3058 C50 40.0536 77.4659 79.2555 C.ar 0 **** 0.042
3059 C51 39.3836 76.2978 79.5614 C.ar 0 **** -0.1268
3060 C52 38.2694 75.9047 78.8248 C.ar 0 **** -0.1268
3061 O53 29.1455 80.679 67.6082 O.3 0 **** -0.452
3062 C54 27.6787 78.2702 68.0295 C.3 0 **** -0.159
3063 O55 34.5662 79.7187 72.5724 O.3 0 **** -0.452
3064 C56 40.448 81.6049 76.3918 C.3 0 **** -0.106
3065 C57 41.761 81.9035 77.1241 C.3 0 **** -0.159
3066 O58 38.6869 72.4699 78.9868 O.3 0 **** -0.4365
3067 O59 31.8889 69.9745 76.3766 O.3 0 **** -0.452
3068 O60 41.1085 77.7506 80.044 O.3 0 **** -0.452
3069 H61 31.3353 81.0433 69.1112 H 0 **** 0.1268
3070 H62 28.8277 76.8257 69.9129 H 0 **** 0.1268
3071 H63 32.3477 80.3385 71.722 H 0 **** 0.053
3072 H64 33.3406 79.4873 70.4794 H 0 **** 0.053
3073 H65 29.0088 75.9397 71.5445 H 0 **** 0.053
3074 H66 30.1054 74.6133 71.0848 H 0 **** 0.053
3075 H67 29.0329 75.2576 73.916 H 0 **** 0.053
3076 H68 28.4371 73.9506 72.8412 H 0 **** 0.053
3077 H69 30.1115 73.0522 74.394 H 0 **** 0.053
3078 H70 30.7186 72.9596 72.737 H 0 **** 0.053
3079 H71 35.6757 74.1726 75.8458 H 0 **** 0.053
3080 H72 31.9422 71.9516 74.665 H 0 **** 0.053
3081 H73 36.2509 67.8228 78.3602 H 0 **** 0.053
3082 H74 36.3981 68.3147 80.0575 H 0 **** 0.053
3083 H75 34.1671 67.2624 79.6282 H 0 **** 0.053
3084 H76 33.9443 68.9608 80.0596 H 0 **** 0.053
3085 H77 34.0777 67.8467 77.188 H 0 **** 0.053
3086 H78 32.611 68.3509 78.0161 H 0 **** 0.053
3087 H79 36.8672 73.5632 77.5296 H 0 **** 0.1268
3088 H80 38.0446 70.0742 79.6413 H 0 **** 0.1268
3089 H81 37.0944 79.1246 73.6833 H 0 **** 0.053
3090 H82 36.061 80.0464 74.8469 H 0 **** 0.053
3091 H83 36.1825 75.3965 77.3333 H 0 **** 0.1268
3092 H84 38.3665 80.4913 75.2554 H 0 **** 0.1268
3093 H85 41.1177 79.8129 78.4249 H 0 **** 0.1268
3094 H86 39.7009 75.6528 80.3974 H 0 **** 0.1268
3095 H87 37.7076 74.9699 79.1072 H 0 **** 0.1268
3096 H88 29.7469 81.4088 67.5536 H 0 **** 0.41
3097 H89 27.1127 79.1723 67.7699 H 0 **** 0.053
3098 H90 26.9999 77.6175 68.5953 H 0 **** 0.053
3099 H91 27.9499 77.7609 67.0907 H 0 **** 0.053
3100 H92 35.3443 80.1435 72.9061 H 0 **** 0.41
3101 H93 40.6462 81.5938 75.315 H 0 **** 0.053
3102 H94 42.1963 82.8665 76.7915 H 0 **** 0.053
3103 H95 42.5219 81.1219 76.9355 H 0 **** 0.053
3104 H96 41.6115 81.9812 78.2172 H 0 **** 0.053
3105 H97 38.7735 73.3121 78.5697 H 0 **** 0.41
3106 H98 31.3271 70.5258 75.8564 H 0 **** 0.41
3107 H99 41.4979 78.5697 79.7656 H 0 **** 0.41
3108 H100 34.5093 74.688 77.1819 H 0 **** 0.053
3109 H101 31.302 72.7719 76.117 H 0 **** 0.053
3110 H102 39.7424 82.421 76.5845 H 0 **** 0.053
3111 C1 18.0717 71.2973 75.951 C.ar 0 **** 0.042
3112 C2 17.1578 71.5833 74.9539 C.ar 0 **** -0.1268
3113 C3 17.5592 72.2083 73.7847 C.ar 0 **** 0
3114 C4 18.8929 72.5663 73.5826 C.ar 0 **** 0
3115 C5 19.8118 72.2597 74.5907 C.ar 0 **** -0.1268
3116 C6 19.4178 71.6452 75.7701 C.ar 0 **** 0
3117 C7 18.9762 73.2003 72.2757 C.ar 0 **** 0
3118 C8 17.707 73.1948 71.7241 C.ar 0 **** 0
3119 C9 16.6904 72.5747 72.6201 C.3 0 **** -0.106
3120 C10 17.496 73.7288 70.4576 C.ar 0 **** 0
3121 C11 18.5658 74.2787 69.7207 C.ar 0 **** 0
3122 C12 19.8452 74.2652 70.341 C.ar 0 **** 0
3123 C13 20.0552 73.7398 71.6208 C.ar 0 **** 0
3124 C14 21.4294 73.747 72.2294 C.3 0 **** -0.106
3125 C15 22.2313 74.9584 71.7538 C.3 0 **** -0.106
3126 C16 22.3645 74.8595 70.2589 C.3 0 **** -0.106
3127 C17 21.0182 74.8632 69.566 C.ar 0 **** 0
3128 C18 20.8843 75.3604 68.3095 C.ar 0 **** 0
3129 C19 19.669 75.3541 67.6844 C.ar 0 **** 0
3130 C20 18.3674 74.8231 68.4041 C.ar 0 **** 0
3131 C21 17.0044 74.8399 67.9026 C.ar 0 **** 0
3132 C22 16.0149 74.2439 68.6918 C.ar 0 **** 0
3133 C23 16.2204 73.713 69.9173 C.ar 0 **** 0.042
3134 C24 19.561 75.8827 66.2616 C.3 0 **** -0.106
3135 C25 20.9007 76.1673 65.5216 C.ar 0 **** 0
3136 C26 22.0874 76.1847 66.2125 C.ar 0 **** 0
3137 C27 22.1638 75.9008 67.6771 C.3 0 **** -0.106
3138 C28 23.28 76.4911 65.5605 C.ar 0 **** 0.042
3139 C29 23.321 76.8024 64.2124 C.ar 0 **** 0
3140 C30 22.1152 76.7686 63.5292 C.ar 0 **** 0
3141 C31 20.913 76.4595 64.1603 C.ar 0 **** 0
3142 C32 22.0338 77.0872 62.0274 C.ar 0 **** 0
3143 C33 23.3824 77.4304 61.3867 C.3 0 **** -0.106
3144 C34 24.344 78.1026 62.3643 C.3 0 **** -0.106
3145 C35 24.6174 77.1345 63.5133 C.3 0 **** -0.106
3146 C36 19.6531 76.4511 63.3183 C.ar 0 **** -0.1268
3147 C37 19.7136 76.7538 61.9947 C.ar 0 **** 0.0265
3148 C38 20.8531 77.0638 61.3604 C.ar 0 **** -0.1268
3149 C39 14.6371 74.2279 68.1417 C.3 0 **** -0.106
3150 C40 14.9207 74.975 66.8793 C.ar 0 **** 0
3151 C41 16.2652 75.3233 66.7367 C.ar 0 **** 0
3152 C42 16.5769 76.073 65.5832 C.ar 0 **** -0.1268
3153 C43 15.5997 76.4033 64.6212 C.ar 0 **** 0
3154 C44 14.2536 76.0157 64.7911 C.ar 0 **** 0
3155 C45 13.9187 75.2977 65.9502 C.ar 0 **** 0
3156 C46 12.5713 74.9289 66.1555 C.ar 0 **** -0.1268
3157 C47 11.5658 75.2443 65.2544 C.ar 0 **** 0
3158 C48 11.9164 75.9546 64.1211 C.ar 0 **** -0.1268
3159 C49 13.2388 76.3518 63.8623 C.ar 0 **** 0
3160 C50 13.595 77.0837 62.7156 C.ar 0 **** 0.042
3161 C51 14.9052 77.4715 62.5161 C.ar 0 **** -0.1268
3162 C52 15.8901 77.1506 63.4464 C.ar 0 **** -0.1268
3163 O53 17.6776 70.6771 77.1127 O.3 0 **** -0.452
3164 C54 20.4419 71.3217 76.8471 C.3 0 **** -0.159
3165 O55 15.1883 73.1814 70.5949 O.3 0 **** -0.452
3166 C56 10.1554 74.788 65.6115 C.3 0 **** -0.106
3167 C57 9.1476 75.0213 64.4806 C.3 0 **** -0.159
3168 O58 18.5692 76.7413 61.2914 O.3 0 **** -0.4365
3169 O59 24.4806 76.5083 66.2166 O.3 0 **** -0.452
3170 O60 12.7278 77.4613 61.7558 O.3 0 **** -0.452
3171 H61 16.0805 71.3175 75.0578 H 0 **** 0.1268
3172 H62 20.8875 72.4708 74.5175 H 0 **** 0.1268
3173 H63 15.8998 73.2763 72.9425 H 0 **** 0.053
3174 H64 16.224 71.6657 72.1978 H 0 **** 0.053
3175 H65 21.3885 73.806 73.3135 H 0 **** 0.053
3176 H66 21.9855 72.8239 71.9529 H 0 **** 0.053
3177 H67 21.7239 75.9038 72.064 H 0 **** 0.053
3178 H68 23.2475 74.9704 72.247 H 0 **** 0.053
3179 H69 22.9881 75.6931 69.9137 H 0 **** 0.053
3180 H70 22.9092 73.9308 70.0127 H 0 **** 0.053
3181 H71 18.998 75.1387 65.6596 H 0 **** 0.053
3182 H72 22.9408 75.1456 67.8324 H 0 **** 0.053
3183 H73 23.8408 76.4958 61.004 H 0 **** 0.053
3184 H74 23.1835 78.0681 60.5142 H 0 **** 0.053
3185 H75 25.2795 78.3596 61.8523 H 0 **** 0.053
3186 H76 23.9138 79.0416 62.7412 H 0 **** 0.053
3187 H77 25.066 76.2084 63.1289 H 0 **** 0.053
3188 H78 25.3226 77.568 64.2138 H 0 **** 0.053
3189 H79 18.7315 76.1871 63.8006 H 0 **** 0.1268
3190 H80 20.8738 77.2926 60.3064 H 0 **** 0.1268
3191 H81 14.2672 73.2134 67.9243 H 0 **** 0.053
3192 H82 13.9119 74.7744 68.7658 H 0 **** 0.053
3193 H83 17.5523 76.4733 65.3484 H 0 **** 0.1268
3194 H84 12.294 74.3648 67.0649 H 0 **** 0.1268
3195 H85 11.13 76.2084 63.4149 H 0 **** 0.1268
3196 H86 15.2065 78.051 61.628 H 0 **** 0.1268
3197 H87 16.9484 77.5048 63.293 H 0 **** 0.1268
3198 H88 16.7459 70.511 77.0561 H 0 **** 0.41
3199 H89 19.9961 71.3966 77.8457 H 0 **** 0.053
3200 H90 21.2946 72.0144 76.8242 H 0 **** 0.053
3201 H91 20.8229 70.2954 76.7232 H 0 **** 0.053
3202 H92 14.3894 73.2527 70.0913 H 0 **** 0.41
3203 H93 10.1655 73.7201 65.8529 H 0 **** 0.053
3204 H94 8.13603 74.6704 64.7654 H 0 **** 0.053
3205 H95 9.43212 74.4769 63.5597 H 0 **** 0.053
3206 H96 9.05438 76.0947 64.2306 H 0 **** 0.053
3207 H97 17.8518 76.4205 61.8141 H 0 **** 0.41
3208 H98 24.3571 76.3039 67.129 H 0 **** 0.41
3209 H99 11.8571 77.1602 61.9828 H 0 **** 0.41
3210 H100 19.0397 76.8592 66.3302 H 0 **** 0.053
3211 H101 22.4389 76.8179 68.211 H 0 **** 0.053
3212 H102 9.81259 75.3205 66.506 H 0 **** 0.053
3213 C1 29.2842 38.9779 83.4472 C.ar 0 **** 0.042
3214 C2 30.1949 37.9413 83.5341 C.ar 0 **** -0.1268
3215 C3 30.4843 37.1599 82.4277 C.ar 0 **** 0
3216 C4 29.8655 37.3968 81.1994 C.ar 0 **** 0
3217 C5 28.9567 38.4561 81.1186 C.ar 0 **** -0.1268
3218 C6 28.6507 39.2361 82.2238 C.ar 0 **** 0
3219 C7 30.3787 36.4105 80.2609 C.ar 0 **** 0
3220 C8 31.2937 35.6227 80.9372 C.ar 0 **** 0
3221 C9 31.4472 36.0134 82.367 C.3 0 **** -0.106
3222 C10 31.9577 34.5988 80.2705 C.ar 0 **** 0
3223 C11 31.7122 34.352 78.9034 C.ar 0 **** 0
3224 C12 30.756 35.187 78.263 C.ar 0 **** 0
3225 C13 30.0772 36.2082 78.9372 C.ar 0 **** 0
3226 C14 29.0769 37.0643 78.2125 C.3 0 **** -0.106
3227 C15 28.3743 36.2697 77.1114 C.3 0 **** -0.106
3228 C16 29.4247 35.8182 76.1336 C.3 0 **** -0.106
3229 C17 30.466 34.9325 76.7848 C.ar 0 **** 0
3230 C18 31.1119 33.9766 76.0686 C.ar 0 **** 0
3231 C19 32.0565 33.1846 76.6585 C.ar 0 **** 0
3232 C20 32.4 33.3057 78.1953 C.ar 0 **** 0
3233 C21 33.3059 32.4775 78.9717 C.ar 0 **** 0
3234 C22 33.5087 32.8186 80.3134 C.ar 0 **** 0
3235 C23 32.8722 33.8198 80.9605 C.ar 0 **** 0.042
3236 C24 32.7901 32.1496 75.818 C.3 0 **** -0.106
3237 C25 32.5877 32.2342 74.2769 C.ar 0 **** 0
3238 C26 31.6022 33.0304 73.7472 C.ar 0 **** 0
3239 C27 30.7103 33.8722 74.5999 C.3 0 **** -0.106
3240 C28 31.3861 33.066 72.3712 C.ar 0 **** 0.042
3241 C29 32.1322 32.302 71.4906 C.ar 0 **** 0
3242 C30 33.1297 31.5129 72.0423 C.ar 0 **** 0
3243 C31 33.3656 31.4666 73.414 C.ar 0 **** 0
3244 C32 34.0295 30.6266 71.1658 C.ar 0 **** 0
3245 C33 33.721 30.7129 69.6684 C.3 0 **** -0.106
3246 C34 32.2472 30.9941 69.3867 C.3 0 **** -0.106
3247 C35 31.8919 32.3463 70.0005 C.3 0 **** -0.106
3248 C36 34.4824 30.5706 73.91 C.ar 0 **** -0.1268
3249 C37 35.2077 29.8316 73.0297 C.ar 0 **** 0.0265
3250 C38 34.9992 29.8474 71.7057 C.ar 0 **** -0.1268
3251 C39 34.4741 31.9909 81.0777 C.3 0 **** -0.106
3252 C40 34.8066 31.0227 79.9896 C.ar 0 **** 0
3253 C41 34.1474 31.2954 78.7895 C.ar 0 **** 0
3254 C42 34.3904 30.3804 77.744 C.ar 0 **** -0.1268
3255 C43 35.2771 29.2938 77.8941 C.ar 0 **** 0
3256 C44 35.9414 29.0628 79.1176 C.ar 0 **** 0
3257 C45 35.685 29.9444 80.1799 C.ar 0 **** 0
3258 C46 36.3115 29.7111 81.4232 C.ar 0 **** -0.1268
3259 C47 37.1722 28.6457 81.6366 C.ar 0 **** 0
3260 C48 37.4121 27.7899 80.577 C.ar 0 **** -0.1268
3261 C49 36.8175 27.9682 79.3166 C.ar 0 **** 0
3262 C50 37.0473 27.0902 78.2422 C.ar 0 **** 0.042
3263 C51 36.4188 27.2929 77.0295 C.ar 0 **** -0.1268
3264 C52 35.5455 28.3626 76.853 C.ar 0 **** -0.1268
3265 O53 28.995 39.7568 84.5421 O.3 0 **** -0.452
3266 C54 27.6598 40.3838 82.1043 C.3 0 **** -0.159
3267 O55 33.1309 34.0429 82.2609 O.3 0 **** -0.452
3268 C56 37.7622 28.5137 83.0367 C.3 0 **** -0.106
3269 C57 38.8194 27.4151 83.1258 C.3 0 **** -0.159
3270 O58 36.1831 29.0474 73.5173 O.3 0 **** -0.4365
3271 O59 30.418 33.854 71.8103 O.3 0 **** -0.452
3272 O60 37.8586 26.0154 78.3001 O.3 0 **** -0.452
3273 H61 30.7229 37.7081 84.4872 H 0 **** 0.1268
3274 H62 28.4402 38.7452 80.1932 H 0 **** 0.1268
3275 H63 31.1412 35.2229 83.0758 H 0 **** 0.053
3276 H64 32.4646 36.362 82.6231 H 0 **** 0.053
3277 H65 28.3007 37.4275 78.8798 H 0 **** 0.053
3278 H66 29.5763 37.9439 77.7495 H 0 **** 0.053
3279 H67 27.8173 35.4056 77.549 H 0 **** 0.053
3280 H68 27.5985 36.9111 76.5979 H 0 **** 0.053
3281 H69 28.9228 35.2964 75.3095 H 0 **** 0.053
3282 H70 29.9103 36.7093 75.6982 H 0 **** 0.053
3283 H71 33.8774 32.2517 76.0185 H 0 **** 0.053
3284 H72 30.718 34.8886 74.1935 H 0 **** 0.053
3285 H73 34.3416 31.5168 69.2237 H 0 **** 0.053
3286 H74 34.0462 29.7716 69.2076 H 0 **** 0.053
3287 H75 32.0686 31.0081 68.3046 H 0 **** 0.053
3288 H76 31.6159 30.1989 69.8085 H 0 **** 0.053
3289 H77 32.5139 33.1372 69.5595 H 0 **** 0.053
3290 H78 30.8573 32.5962 69.7933 H 0 **** 0.053
3291 H79 34.6809 30.5569 74.9645 H 0 **** 0.1268
3292 H80 35.5959 29.2568 71.0287 H 0 **** 0.1268
3293 H81 35.3694 32.5486 81.3951 H 0 **** 0.053
3294 H82 34.0202 31.4733 81.9378 H 0 **** 0.053
3295 H83 33.9195 30.4088 76.7723 H 0 **** 0.1268
3296 H84 36.1198 30.3976 82.2681 H 0 **** 0.1268
3297 H85 38.0854 26.9529 80.7395 H 0 **** 0.1268
3298 H86 36.5796 26.6153 76.1743 H 0 **** 0.1268
3299 H87 35.0096 28.4975 75.8709 H 0 **** 0.1268
3300 H88 29.5116 39.4432 85.272 H 0 **** 0.41
3301 H89 27.1015 40.5176 83.0382 H 0 **** 0.053
3302 H90 26.9197 40.2068 81.3116 H 0 **** 0.053
3303 H91 28.1848 41.3276 81.8866 H 0 **** 0.053
3304 H92 33.7854 33.4348 82.5754 H 0 **** 0.41
3305 H93 38.2252 29.4638 83.3289 H 0 **** 0.053
3306 H94 39.267 27.3632 84.1359 H 0 **** 0.053
3307 H95 39.63 27.6136 82.4101 H 0 **** 0.053
3308 H96 38.4107 26.4167 82.8963 H 0 **** 0.053
3309 H97 36.3012 29.1859 74.4433 H 0 **** 0.41
3310 H98 29.9534 34.3265 72.4818 H 0 **** 0.41
3311 H99 38.2311 25.9548 79.1698 H 0 **** 0.41
3312 H100 32.3906 31.1605 76.1216 H 0 **** 0.053
3313 H101 29.6892 33.4751 74.5602 H 0 **** 0.053
3314 H102 36.9657 28.3009 83.7581 H 0 **** 0.053
3315 C1 37.9093 27.3626 50.6564 C.ar 0 **** 0.042
3316 C2 37.1441 26.4082 51.3005 C.ar 0 **** -0.1268
3317 C3 37.1972 25.0795 50.9125 C.ar 0 **** 0
3318 C4 38.0214 24.6701 49.8633 C.ar 0 **** 0
3319 C5 38.8013 25.6408 49.2275 C.ar 0 **** -0.1268
3320 C6 38.7458 26.9755 49.6004 C.ar 0 **** 0
3321 C7 37.8413 23.2348 49.7086 C.ar 0 **** 0
3322 C8 36.9341 22.8189 50.6673 C.ar 0 **** 0
3323 C9 36.4362 23.9383 51.5156 C.3 0 **** -0.106
3324 C10 36.5857 21.4759 50.7598 C.ar 0 **** 0
3325 C11 37.1495 20.5239 49.8849 C.ar 0 **** 0
3326 C12 38.0685 21.01 48.915 C.ar 0 **** 0
3327 C13 38.4089 22.3634 48.8128 C.ar 0 **** 0
3328 C14 39.388 22.8251 47.7702 C.3 0 **** -0.106
3329 C15 39.2984 21.9571 46.5149 C.3 0 **** -0.106
3330 C16 39.6404 20.5463 46.9103 C.3 0 **** -0.106
3331 C17 38.6857 19.999 47.9502 C.ar 0 **** 0
3332 C18 38.4179 18.6695 48.017 C.ar 0 **** 0
3333 C19 37.5613 18.1788 48.9619 C.ar 0 **** 0
3334 C20 36.8094 19.129 49.9749 C.ar 0 **** 0
3335 C21 35.8098 18.7629 50.9629 C.ar 0 **** 0
3336 C22 35.3308 19.771 51.8062 C.ar 0 **** 0
3337 C23 35.6784 21.0743 51.7266 C.ar 0 **** 0.042
3338 C24 37.3134 16.6792 49.0346 C.3 0 **** -0.106
3339 C25 38.2525 15.7766 48.1819 C.ar 0 **** 0
3340 C26 39.0716 16.3292 47.2285 C.ar 0 **** 0
3341 C27 39.1355 17.802 46.9865 C.3 0 **** -0.106
3342 C28 39.8712 15.5169 46.4271 C.ar 0 **** 0.042
3343 C29 39.8687 14.1377 46.5449 C.ar 0 **** 0
3344 C30 39.0446 13.5988 47.5206 C.ar 0 **** 0
3345 C31 38.2395 14.3926 48.3336 C.ar 0 **** 0
3346 C32 38.9589 12.0811 47.7503 C.ar 0 **** 0
3347 C33 39.855 11.2556 46.8212 C.3 0 **** -0.106
3348 C34 40.0554 11.9155 45.4587 C.3 0 **** -0.106
3349 C35 40.7392 13.264 45.6733 C.3 0 **** -0.106
3350 C36 37.3754 13.6994 49.3675 C.ar 0 **** -0.1268
3351 C37 37.3887 12.3444 49.4713 C.ar 0 **** 0.0265
3352 C38 38.1442 11.5526 48.6971 C.ar 0 **** -0.1268
3353 C39 34.3463 19.3688 52.8408 C.3 0 **** -0.106
3354 C40 34.2435 17.9265 52.4645 C.ar 0 **** 0
3355 C41 35.0749 17.5757 51.399 C.ar 0 **** 0
3356 C42 34.9791 16.2345 50.973 C.ar 0 **** -0.1268
3357 C43 34.1338 15.306 51.6156 C.ar 0 **** 0
3358 C44 33.3229 15.6941 52.7032 C.ar 0 **** 0
3359 C45 33.38 17.0338 53.1193 C.ar 0 **** 0
3360 C46 32.5519 17.4505 54.1844 C.ar 0 **** -0.1268
3361 C47 31.6869 16.5868 54.839 C.ar 0 **** 0
3362 C48 31.6439 15.2725 54.4117 C.ar 0 **** -0.1268
3363 C49 32.4414 14.7988 53.3566 C.ar 0 **** 0
3364 C50 32.391 13.465 52.9142 C.ar 0 **** 0.042
3365 C51 33.1769 13.0519 51.8566 C.ar 0 **** -0.1268
3366 C52 34.0255 13.9469 51.2106 C.ar 0 **** -0.1268
3367 O53 37.8609 28.6818 51.0393 O.3 0 **** -0.452
3368 C54 39.6086 28.0084 48.8918 C.3 0 **** -0.159
3369 O55 35.1394 21.9615 52.5804 O.3 0 **** -0.452
3370 C56 30.8474 17.179 55.9656 C.3 0 **** -0.106
3371 C57 30.0595 16.1193 56.7439 C.3 0 **** -0.159
3372 O58 36.6018 11.775 50.3991 O.3 0 **** -0.4365
3373 O59 40.6996 16.0352 45.4694 O.3 0 **** -0.452
3374 O60 31.6024 12.5149 53.4537 O.3 0 **** -0.452
3375 H61 36.4707 26.6751 52.1471 H 0 **** 0.1268
3376 H62 39.5042 25.4188 48.4131 H 0 **** 0.1268
3377 H63 35.3495 24.1147 51.4206 H 0 **** 0.053
3378 H64 36.6988 23.8339 52.5844 H 0 **** 0.053
3379 H65 39.1908 23.8468 47.4584 H 0 **** 0.053
3380 H66 40.4285 22.7757 48.1605 H 0 **** 0.053
3381 H67 38.2777 22.0255 46.0654 H 0 **** 0.053
3382 H68 40.0115 22.3353 45.7239 H 0 **** 0.053
3383 H69 39.635 19.9269 46.005 H 0 **** 0.053
3384 H70 40.6723 20.5284 47.3031 H 0 **** 0.053
3385 H71 37.4185 16.3645 50.0941 H 0 **** 0.053
3386 H72 40.1893 18.0986 46.9977 H 0 **** 0.053
3387 H73 40.84 11.1177 47.3116 H 0 **** 0.053
3388 H74 39.4026 10.2593 46.7232 H 0 **** 0.053
3389 H75 40.6722 11.2741 44.8174 H 0 **** 0.053
3390 H76 39.0897 12.0468 44.9496 H 0 **** 0.053
3391 H77 41.7123 13.1231 46.164 H 0 **** 0.053
3392 H78 40.9254 13.7496 44.7216 H 0 **** 0.053
3393 H79 36.7748 14.3147 50.0097 H 0 **** 0.1268
3394 H80 38.1384 10.4794 48.8046 H 0 **** 0.1268
3395 H81 34.7254 19.4821 53.8687 H 0 **** 0.053
3396 H82 33.3719 19.8722 52.7342 H 0 **** 0.053
3397 H83 35.5046 15.8134 50.1283 H 0 **** 0.1268
3398 H84 32.586 18.5037 54.5194 H 0 **** 0.1268
3399 H85 30.9632 14.5933 54.9184 H 0 **** 0.1268
3400 H86 33.1481 12.0137 51.4868 H 0 **** 0.1268
3401 H87 34.6337 13.6094 50.3242 H 0 **** 0.1268
3402 H88 37.2507 28.7562 51.7606 H 0 **** 0.41
3403 H89 39.1007 28.979 48.8482 H 0 **** 0.053
3404 H90 39.8311 27.7168 47.856 H 0 **** 0.053
3405 H91 40.5613 28.1494 49.4268 H 0 **** 0.053
3406 H92 34.5386 21.5313 53.1723 H 0 **** 0.41
3407 H93 31.498 17.7125 56.6663 H 0 **** 0.053
3408 H94 29.469 16.5779 57.5614 H 0 **** 0.053
3409 H95 30.729 15.3703 57.2086 H 0 **** 0.053
3410 H96 29.3427 15.5832 56.0944 H 0 **** 0.053
3411 H97 36.181 12.4284 50.9347 H 0 **** 0.41
3412 H98 40.6396 16.9767 45.4605 H 0 **** 0.41
3413 H99 31.0886 12.8926 54.1559 H 0 **** 0.41
3414 H100 36.2908 16.5126 48.6386 H 0 **** 0.053
3415 H101 38.7071 18.028 46.0032 H 0 **** 0.053
3416 H102 30.144 17.9116 55.5537 H 0 **** 0.053
3417 C1 45.687 32.1215 95.9502 C.ar 0 **** 0.042
3418 C2 45.3854 31.3211 94.8642 C.ar 0 **** -0.1268
3419 C3 45.0975 31.882 93.6308 C.ar 0 **** 0
3420 C4 45.1029 33.2662 93.4521 C.ar 0 **** 0
3421 C5 45.4223 34.0662 94.5532 C.ar 0 **** -0.1268
3422 C6 45.6997 33.5147 95.7951 C.ar 0 **** 0
3423 C7 44.7583 33.523 92.0621 C.ar 0 **** 0
3424 C8 44.5705 32.2999 91.4426 C.ar 0 **** 0
3425 C9 44.7605 31.1481 92.3687 C.3 0 **** -0.106
3426 C10 44.2454 32.2466 90.0917 C.ar 0 **** 0
3427 C11 44.1049 33.4304 89.3376 C.ar 0 **** 0
3428 C12 44.3007 34.6574 90.0286 C.ar 0 **** 0
3429 C13 44.6145 34.7118 91.3912 C.ar 0 **** 0
3430 C14 44.8134 36.036 92.0736 C.3 0 **** -0.106
3431 C15 43.9303 37.1132 91.4434 C.3 0 **** -0.106
3432 C16 44.333 37.2464 89.9999 C.3 0 **** -0.106
3433 C17 44.1452 35.9534 89.2349 C.ar 0 **** 0
3434 C18 43.8704 35.9661 87.9052 C.ar 0 **** 0
3435 C19 43.7092 34.7967 87.2169 C.ar 0 **** 0
3436 C20 43.7813 33.3929 87.9366 C.ar 0 **** 0
3437 C21 43.5407 32.0835 87.3568 C.ar 0 **** 0
3438 C22 43.7343 30.9655 88.1752 C.ar 0 **** 0
3439 C23 44.0638 31.0147 89.4848 C.ar 0 **** 0.042
3440 C24 43.4413 34.8451 85.7198 C.3 0 **** -0.106
3441 C25 43.6172 36.2274 85.0259 C.ar 0 **** 0
3442 C26 43.7485 37.3705 85.7752 C.ar 0 **** 0
3443 C27 43.7673 37.3493 87.2687 C.3 0 **** -0.106
3444 C28 43.8524 38.6138 85.1551 C.ar 0 **** 0.042
3445 C29 43.814 38.7534 83.7784 C.ar 0 **** 0
3446 C30 43.6926 37.5875 83.0383 C.ar 0 **** 0
3447 C31 43.5921 36.3347 83.638 C.ar 0 **** 0
3448 C32 43.6466 37.6128 81.5019 C.ar 0 **** 0
3449 C33 43.7502 39.016 80.8959 C.3 0 **** -0.106
3450 C34 43.151 40.0923 81.7985 C.3 0 **** -0.106
3451 C35 43.9269 40.1044 83.1136 C.3 0 **** -0.106
3452 C36 43.4633 35.1253 82.7342 C.ar 0 **** -0.1268
3453 C37 43.4329 35.2813 81.3844 C.ar 0 **** 0.0265
3454 C38 43.5181 36.4735 80.7775 C.ar 0 **** -0.1268
3455 C39 43.5305 29.6345 87.5523 C.3 0 **** -0.106
3456 C40 43.1159 30.1129 86.1992 C.ar 0 **** 0
3457 C41 43.1221 31.504 86.0808 C.ar 0 **** 0
3458 C42 42.6909 32.0077 84.8359 C.ar 0 **** -0.1268
3459 C43 42.3272 31.1564 83.7721 C.ar 0 **** 0
3460 C44 42.3606 29.7541 83.9225 C.ar 0 **** 0
3461 C45 42.7478 29.2348 85.1682 C.ar 0 **** 0
3462 C46 42.7489 27.8347 85.3531 C.ar 0 **** -0.1268
3463 C47 42.3939 26.9502 84.3475 C.ar 0 **** 0
3464 C48 42.0352 27.4817 83.1232 C.ar 0 **** -0.1268
3465 C49 41.9933 28.8663 82.8827 C.ar 0 **** 0
3466 C50 41.5757 29.4095 81.6532 C.ar 0 **** 0.042
3467 C51 41.534 30.7774 81.4739 C.ar 0 **** -0.1268
3468 C52 41.8964 31.639 82.5052 C.ar 0 **** -0.1268
3469 O53 45.9754 31.5709 97.1759 O.3 0 **** -0.452
3470 C54 46.0465 34.4109 96.974 C.3 0 **** -0.159
3471 O55 44.2072 29.8727 90.1793 O.3 0 **** -0.452
3472 C56 42.4248 25.4652 84.6906 C.3 0 **** -0.106
3473 C57 42.1738 24.5648 83.4757 C.3 0 **** -0.159
3474 O58 43.3104 34.1806 80.6245 O.3 0 **** -0.4365
3475 O59 43.9915 39.7711 85.8716 O.3 0 **** -0.452
3476 O60 41.1885 28.6762 80.5902 O.3 0 **** -0.452
3477 H61 45.3679 30.2103 94.9467 H 0 **** 0.1268
3478 H62 45.4839 35.1622 94.5114 H 0 **** 0.1268
3479 H63 43.8469 30.5434 92.5138 H 0 **** 0.053
3480 H64 45.598 30.4851 92.0837 H 0 **** 0.053
3481 H65 44.5473 35.9896 93.1257 H 0 **** 0.053
3482 H66 45.8748 36.3603 91.9978 H 0 **** 0.053
3483 H67 42.851 36.8439 91.5492 H 0 **** 0.053
3484 H68 44.0596 38.0952 91.9874 H 0 **** 0.053
3485 H69 43.7442 38.0576 89.5544 H 0 **** 0.053
3486 H70 45.3914 37.5582 89.9546 H 0 **** 0.053
3487 H71 44.132 34.1315 85.2234 H 0 **** 0.053
3488 H72 44.64 37.9201 87.6019 H 0 **** 0.053
3489 H73 44.8198 39.2443 80.7117 H 0 **** 0.053
3490 H74 43.256 38.9918 79.9147 H 0 **** 0.053
3491 H75 43.2172 41.0715 81.3083 H 0 **** 0.053
3492 H76 42.0848 39.8927 81.9776 H 0 **** 0.053
3493 H77 44.9864 40.3251 82.9257 H 0 **** 0.053
3494 H78 43.5474 40.8798 83.7697 H 0 **** 0.053
3495 H79 43.4122 34.1587 83.1971 H 0 **** 0.1268
3496 H80 43.4985 36.5679 79.703 H 0 **** 0.1268
3497 H81 44.4536 29.0364 87.4929 H 0 **** 0.053
3498 H82 42.7251 29.05 88.0252 H 0 **** 0.053
3499 H83 42.5786 33.0545 84.5952 H 0 **** 0.1268
3500 H84 43.0504 27.4141 86.3294 H 0 **** 0.1268
3501 H85 41.7417 26.79 82.3373 H 0 **** 0.1268
3502 H86 41.2112 31.2242 80.5191 H 0 **** 0.1268
3503 H87 41.8311 32.7539 82.3577 H 0 **** 0.1268
3504 H88 45.915 30.6283 97.1014 H 0 **** 0.41
3505 H89 45.6869 33.9773 97.9145 H 0 **** 0.053
3506 H90 45.587 35.4051 96.8836 H 0 **** 0.053
3507 H91 47.1379 34.5373 97.0559 H 0 **** 0.053
3508 H92 44.0435 29.1239 89.6231 H 0 **** 0.41
3509 H93 43.4003 25.2105 85.1162 H 0 **** 0.053
3510 H94 42.2209 23.4933 83.7541 H 0 **** 0.053
3511 H95 42.93 24.7263 82.6836 H 0 **** 0.053
3512 H96 41.1732 24.7372 83.0371 H 0 **** 0.053
3513 H97 43.3496 33.3972 81.1491 H 0 **** 0.41
3514 H98 43.9961 39.5842 86.7964 H 0 **** 0.41
3515 H99 41.2484 27.7555 80.8077 H 0 **** 0.41
3516 H100 42.3748 34.5722 85.5845 H 0 **** 0.053
3517 H101 42.857 37.8258 87.6505 H 0 **** 0.053
3518 H102 41.6692 25.2465 85.4537 H 0 **** 0.053
3519 C1 61.9371 36.8898 22.962 C.ar 0 **** 0.042
3520 C2 62.4301 36.081 21.9551 C.ar 0 **** -0.1268
3521 C3 63.7275 35.5986 22.0071 C.ar 0 **** 0
3522 C4 64.5696 35.9159 23.0739 C.ar 0 **** 0
3523 C5 64.0568 36.723 24.0939 C.ar 0 **** -0.1268
3524 C6 62.7634 37.2212 24.0447 C.ar 0 **** 0
3525 C7 65.8463 35.2645 22.8237 C.ar 0 **** 0
3526 C8 65.7369 34.5677 21.6331 C.ar 0 **** 0
3527 C9 64.3956 34.7126 21.0002 C.3 0 **** -0.106
3528 C10 66.8158 33.8315 21.1558 C.ar 0 **** 0
3529 C11 68.0285 33.7827 21.8746 C.ar 0 **** 0
3530 C12 68.0857 34.5248 23.086 C.ar 0 **** 0
3531 C13 67.0049 35.2768 23.5596 C.ar 0 **** 0
3532 C14 67.1169 36.0418 24.8483 C.3 0 **** -0.106
3533 C15 68.5493 36.5273 25.0721 C.3 0 **** -0.106
3534 C16 69.4352 35.3138 25.15 C.3 0 **** -0.106
3535 C17 69.392 34.4947 23.8774 C.ar 0 **** 0
3536 C18 70.4658 33.7618 23.4855 C.ar 0 **** 0
3537 C19 70.4198 33.0177 22.3402 C.ar 0 **** 0
3538 C20 69.1499 33.016 21.4015 C.ar 0 **** 0
3539 C21 68.9935 32.3527 20.1191 C.ar 0 **** 0
3540 C22 67.7437 32.4318 19.4956 C.ar 0 **** 0
3541 C23 66.6902 33.1368 19.9638 C.ar 0 **** 0.042
3542 C24 71.6258 32.1758 21.9505 C.3 0 **** -0.106
3543 C25 72.7452 32.0266 23.0218 C.ar 0 **** 0
3544 C26 72.7493 32.8237 24.1399 C.ar 0 **** 0
3545 C27 71.6811 33.8334 24.4055 C.3 0 **** -0.106
3546 C28 73.7797 32.7271 25.0726 C.ar 0 **** 0.042
3547 C29 74.8369 31.8484 24.9108 C.ar 0 **** 0
3548 C30 74.8096 31.0439 23.7822 C.ar 0 **** 0
3549 C31 73.787 31.121 22.8403 C.ar 0 **** 0
3550 C32 75.9231 30.0231 23.4966 C.ar 0 **** 0
3551 C33 77.0269 29.9879 24.5585 C.3 0 **** -0.106
3552 C34 77.245 31.3444 25.2254 C.3 0 **** -0.106
3553 C35 75.9502 31.7498 25.9261 C.3 0 **** -0.106
3554 C36 73.8559 30.195 21.6429 C.ar 0 **** -0.1268
3555 C37 74.8993 29.3355 21.503 C.ar 0 **** 0.0265
3556 C38 75.9024 29.243 22.3874 C.ar 0 **** -0.1268
3557 C39 67.5882 31.7079 18.21 C.3 0 **** -0.106
3558 C40 68.9886 31.1989 18.1006 C.ar 0 **** 0
3559 C41 69.7917 31.5605 19.1841 C.ar 0 **** 0
3560 C42 71.1373 31.1447 19.1056 C.ar 0 **** -0.1268
3561 C43 71.6183 30.3749 18.0261 C.ar 0 **** 0
3562 C44 70.7704 30.013 16.9579 C.ar 0 **** 0
3563 C45 69.436 30.447 17.0027 C.ar 0 **** 0
3564 C46 68.5792 30.1226 15.9283 C.ar 0 **** -0.1268
3565 C47 69.0031 29.3875 14.8318 C.ar 0 **** 0
3566 C48 70.3218 28.9725 14.8057 C.ar 0 **** -0.1268
3567 C49 71.2227 29.2662 15.843 C.ar 0 **** 0
3568 C50 72.5669 28.8545 15.8126 C.ar 0 **** 0.042
3569 C51 73.4202 29.185 16.8468 C.ar 0 **** -0.1268
3570 C52 72.9666 29.9335 17.9295 C.ar 0 **** -0.1268
3571 O53 60.65 37.3697 22.9152 O.3 0 **** -0.452
3572 C54 62.2325 38.0945 25.1711 C.3 0 **** -0.159
3573 O55 65.5401 33.1581 19.2682 O.3 0 **** -0.452
3574 C56 67.9697 29.1201 13.743 C.3 0 **** -0.106
3575 C57 68.4743 28.1556 12.6639 C.3 0 **** -0.159
3576 O58 74.922 28.5422 20.4194 O.3 0 **** -0.4365
3577 O59 73.8104 33.5007 26.2008 O.3 0 **** -0.452
3578 O60 73.1197 28.1391 14.8136 O.3 0 **** -0.452
3579 H61 61.803 35.791 21.0809 H 0 **** 0.1268
3580 H62 64.6254 37.0045 24.9908 H 0 **** 0.1268
3581 H63 64.4241 35.212 20.0148 H 0 **** 0.053
3582 H64 63.8428 33.7591 20.9121 H 0 **** 0.053
3583 H65 66.484 36.9245 24.8481 H 0 **** 0.053
3584 H66 66.8216 35.4033 25.7101 H 0 **** 0.053
3585 H67 68.8612 37.216 24.2494 H 0 **** 0.053
3586 H68 68.6147 37.1325 26.0243 H 0 **** 0.053
3587 H69 70.4563 35.6496 25.3689 H 0 **** 0.053
3588 H70 69.1131 34.6942 26.0056 H 0 **** 0.053
3589 H71 71.2665 31.1558 21.6987 H 0 **** 0.053
3590 H72 71.3185 33.6778 25.4267 H 0 **** 0.053
3591 H73 76.7534 29.2388 25.3294 H 0 **** 0.053
3592 H74 77.9438 29.6254 24.0732 H 0 **** 0.053
3593 H75 78.0654 31.2775 25.9506 H 0 **** 0.053
3594 H76 77.5351 32.097 24.4783 H 0 **** 0.053
3595 H77 75.6804 31.0021 26.6843 H 0 **** 0.053
3596 H78 76.0777 32.6969 26.4383 H 0 **** 0.053
3597 H79 73.053 30.2364 20.9323 H 0 **** 0.1268
3598 H80 76.7147 28.5453 22.2563 H 0 **** 0.1268
3599 H81 66.8693 30.875 18.2639 H 0 **** 0.053
3600 H82 67.3446 32.3695 17.3634 H 0 **** 0.053
3601 H83 71.9049 31.3862 19.8261 H 0 **** 0.1268
3602 H84 67.5263 30.4589 15.9506 H 0 **** 0.1268
3603 H85 70.659 28.4 13.9454 H 0 **** 0.1268
3604 H86 74.4785 28.8767 16.8419 H 0 **** 0.1268
3605 H87 73.6801 30.2304 18.7491 H 0 **** 0.1268
3606 H88 60.2433 37.0454 22.1232 H 0 **** 0.41
3607 H89 61.5222 38.8371 24.7892 H 0 **** 0.053
3608 H90 63.0363 38.6495 25.6745 H 0 **** 0.053
3609 H91 61.7089 37.4816 25.9222 H 0 **** 0.053
3610 H92 65.6174 32.634 18.4831 H 0 **** 0.41
3611 H93 67.0651 28.6965 14.1915 H 0 **** 0.053
3612 H94 67.6987 27.973 11.894 H 0 **** 0.053
3613 H95 68.7461 27.1706 13.0896 H 0 **** 0.053
3614 H96 69.359 28.5582 12.1362 H 0 **** 0.053
3615 H97 74.1203 28.6148 19.9267 H 0 **** 0.41
3616 H98 73.0626 34.0754 26.224 H 0 **** 0.41
3617 H99 72.4629 27.9609 14.1523 H 0 **** 0.41
3618 H100 72.0991 32.6876 21.0878 H 0 **** 0.053
3619 H101 72.1046 34.841 24.3224 H 0 **** 0.053
3620 H102 67.6846 30.0652 13.2668 H 0 **** 0.053
3621 C1 60.9258 31.1812 52.4746 C.ar 0 **** 0.042
3622 C2 60.0224 31.186 53.5211 C.ar 0 **** -0.1268
3623 C3 58.7441 30.6796 53.354 C.ar 0 **** 0
3624 C4 58.3346 30.1535 52.128 C.ar 0 **** 0
3625 C5 59.26 30.141 51.08 C.ar 0 **** -0.1268
3626 C6 60.538 30.6572 51.2337 C.ar 0 **** 0
3627 C7 56.9553 29.7179 52.2849 C.ar 0 **** 0
3628 C8 56.5785 29.9768 53.5911 C.ar 0 **** 0
3629 C9 57.6643 30.6111 54.3906 C.3 0 **** -0.106
3630 C10 55.3011 29.6415 54.0265 C.ar 0 **** 0
3631 C11 54.3776 29.0348 53.1496 C.ar 0 **** 0
3632 C12 54.8172 28.8008 51.8179 C.ar 0 **** 0
3633 C13 56.0979 29.1504 51.3756 C.ar 0 **** 0
3634 C14 56.5135 28.8787 49.9572 C.3 0 **** -0.106
3635 C15 55.3181 28.9787 49.0094 C.3 0 **** -0.106
3636 C16 54.3154 27.9383 49.4285 C.3 0 **** -0.106
3637 C17 53.8316 28.1525 50.8471 C.ar 0 **** 0
3638 C18 52.5859 27.7643 51.223 C.ar 0 **** 0
3639 C19 52.156 27.9525 52.5065 C.ar 0 **** 0
3640 C20 53.0568 28.67 53.5872 C.ar 0 **** 0
3641 C21 52.7011 29.0181 54.9516 C.ar 0 **** 0
3642 C22 53.6934 29.5892 55.7555 C.ar 0 **** 0
3643 C23 54.9396 29.9037 55.3379 C.ar 0 **** 0.042
3644 C24 50.7689 27.4702 52.9051 C.3 0 **** -0.106
3645 C25 50.0251 26.566 51.8793 C.ar 0 **** 0
3646 C26 50.4945 26.4389 50.5951 C.ar 0 **** 0
3647 C27 51.7411 27.1175 50.129 C.3 0 **** -0.106
3648 C28 49.8001 25.6723 49.6615 C.ar 0 **** 0.042
3649 C29 48.6167 25.0265 49.9759 C.ar 0 **** 0
3650 C30 48.1646 25.1567 51.2799 C.ar 0 **** 0
3651 C31 48.8458 25.9138 52.2296 C.ar 0 **** 0
3652 C32 46.8674 24.4797 51.7511 C.ar 0 **** 0
3653 C33 46.1534 23.6691 50.6648 C.3 0 **** -0.106
3654 C34 46.374 24.2397 49.2655 C.3 0 **** -0.106
3655 C35 47.8693 24.198 48.9585 C.3 0 **** -0.106
3656 C36 48.2624 25.9886 53.6264 C.ar 0 **** -0.1268
3657 C37 47.1023 25.3434 53.918 C.ar 0 **** 0.0265
3658 C38 46.4193 24.6151 53.0238 C.ar 0 **** -0.1268
3659 C39 53.3261 29.8935 57.1604 C.3 0 **** -0.106
3660 C40 51.8974 29.4625 57.0878 C.ar 0 **** 0
3661 C41 51.5369 28.9617 55.8353 C.ar 0 **** 0
3662 C42 50.1842 28.5857 55.7003 C.ar 0 **** -0.1268
3663 C43 49.2755 28.6687 56.776 C.ar 0 **** 0
3664 C44 49.6829 29.1621 58.0337 C.ar 0 **** 0
3665 C45 51.0179 29.5727 58.1767 C.ar 0 **** 0
3666 C46 51.4376 30.1001 59.4173 C.ar 0 **** -0.1268
3667 C47 50.5835 30.2244 60.5024 C.ar 0 **** 0
3668 C48 49.2722 29.8173 60.3395 C.ar 0 **** -0.1268
3669 C49 48.7946 29.2869 59.1295 C.ar 0 **** 0
3670 C50 47.4585 28.8824 58.959 C.ar 0 **** 0.042
3671 C51 47.0301 28.388 57.7429 C.ar 0 **** -0.1268
3672 C52 47.9093 28.2881 56.6679 C.ar 0 **** -0.1268
3673 O53 62.1962 31.6803 52.6367 O.3 0 **** -0.452
3674 C54 61.5238 30.6272 50.0758 C.3 0 **** -0.159
3675 O55 55.8077 30.4674 56.1959 O.3 0 **** -0.452
3676 C56 51.1737 30.8187 61.7765 C.3 0 **** -0.106
3677 C57 50.2123 30.7515 62.9683 C.3 0 **** -0.159
3678 O58 46.62 25.4454 55.1676 O.3 0 **** -0.4365
3679 O59 50.2444 25.5187 48.3763 O.3 0 **** -0.452
3680 O60 46.5173 28.9449 59.9213 O.3 0 **** -0.452
3681 H61 60.2937 31.5898 54.5236 H 0 **** 0.1268
3682 H62 59.0482 29.7225 50.0867 H 0 **** 0.1268
3683 H63 57.4144 31.627 54.7464 H 0 **** 0.053
3684 H64 58.0012 29.9959 55.2452 H 0 **** 0.053
3685 H65 57.249 29.5984 49.6095 H 0 **** 0.053
3686 H66 56.9529 27.861 49.8656 H 0 **** 0.053
3687 H67 54.8834 30.0077 49.0375 H 0 **** 0.053
3688 H68 55.6477 28.8102 47.9418 H 0 **** 0.053
3689 H69 53.4794 27.964 48.7187 H 0 **** 0.053
3690 H70 54.7804 26.9409 49.338 H 0 **** 0.053
3691 H71 50.863 26.8957 53.8506 H 0 **** 0.053
3692 H72 52.3705 26.3661 49.6415 H 0 **** 0.053
3693 H73 46.526 22.6251 50.6995 H 0 **** 0.053
3694 H74 45.0859 23.6354 50.923 H 0 **** 0.053
3695 H75 45.8171 23.6486 48.5279 H 0 **** 0.053
3696 H76 45.9937 25.2696 49.2071 H 0 **** 0.053
3697 H77 48.2352 23.1631 48.9994 H 0 **** 0.053
3698 H78 48.0608 24.5686 47.9577 H 0 **** 0.053
3699 H79 48.8025 26.551 54.3639 H 0 **** 0.1268
3700 H80 45.5042 24.1068 53.2824 H 0 **** 0.1268
3701 H81 53.8823 29.2909 57.8957 H 0 **** 0.053
3702 H82 53.4001 30.9645 57.4084 H 0 **** 0.053
3703 H83 49.7254 28.2358 54.7871 H 0 **** 0.1268
3704 H84 52.4857 30.4286 59.5427 H 0 **** 0.1268
3705 H85 48.598 29.9181 61.1863 H 0 **** 0.1268
3706 H86 45.9861 28.0711 57.5844 H 0 **** 0.1268
3707 H87 47.54 27.9197 55.6694 H 0 **** 0.1268
3708 H88 62.2786 31.9901 53.5285 H 0 **** 0.41
3709 H89 62.1918 31.4959 50.1081 H 0 **** 0.053
3710 H90 61.0148 30.651 49.1023 H 0 **** 0.053
3711 H91 62.1471 29.7199 50.1216 H 0 **** 0.053
3712 H92 55.4051 30.5831 57.0454 H 0 **** 0.41
3713 H93 52.0916 30.2832 62.0402 H 0 **** 0.053
3714 H94 50.6725 31.1804 63.8803 H 0 **** 0.053
3715 H95 49.9292 29.7086 63.2079 H 0 **** 0.053
3716 H96 49.2854 31.3245 62.7791 H 0 **** 0.053
3717 H97 47.2257 25.9007 55.7307 H 0 **** 0.41
3718 H98 51.0442 26.0028 48.2487 H 0 **** 0.41
3719 H99 46.899 29.3038 60.7123 H 0 **** 0.41
3720 H100 50.1428 28.3787 53.0178 H 0 **** 0.053
3721 H101 51.4811 27.8968 49.4032 H 0 **** 0.053
3722 H102 51.4468 31.8656 61.6013 H 0 **** 0.053
3723 C1 46.2375 27.9497 5.26368 C.ar 0 **** 0.042
3724 C2 45.5366 26.7673 5.41118 C.ar 0 **** -0.1268
3725 C3 44.1646 26.7776 5.60149 C.ar 0 **** 0
3726 C4 43.4553 27.9785 5.65177 C.ar 0 **** 0
3727 C5 44.172 29.1682 5.49069 C.ar 0 **** -0.1268
3728 C6 45.5473 29.1689 5.31197 C.ar 0 **** 0
3729 C7 42.0552 27.6438 5.86408 C.ar 0 **** 0
3730 C8 41.9565 26.2646 5.92095 C.ar 0 **** 0
3731 C9 43.2734 25.5843 5.76609 C.3 0 **** -0.106
3732 C10 40.7162 25.6622 6.10098 C.ar 0 **** 0
3733 C11 39.548 26.443 6.22605 C.ar 0 **** 0
3734 C12 39.7111 27.8543 6.16896 C.ar 0 **** 0
3735 C13 40.9609 28.461 6.00108 C.ar 0 **** 0
3736 C14 41.078 29.9582 5.94498 C.3 0 **** -0.106
3737 C15 40.0101 30.6224 6.81473 C.3 0 **** -0.106
3738 C16 38.6652 30.2211 6.2727 C.3 0 **** -0.106
3739 C17 38.4612 28.7214 6.31054 C.ar 0 **** 0
3740 C18 37.218 28.1925 6.44599 C.ar 0 **** 0
3741 C19 37.0373 26.8383 6.47224 C.ar 0 **** 0
3742 C20 38.2556 25.8358 6.40016 C.ar 0 **** 0
3743 C21 38.2234 24.3878 6.50844 C.ar 0 **** 0
3744 C22 39.4285 23.6973 6.34057 C.ar 0 **** 0
3745 C23 40.6329 24.2803 6.1517 C.ar 0 **** 0.042
3746 C24 35.6273 26.2778 6.58563 C.3 0 **** -0.106
3747 C25 34.4597 27.2928 6.41462 C.ar 0 **** 0
3748 C26 34.7043 28.6437 6.42671 C.ar 0 **** 0
3749 C27 36.082 29.2054 6.55541 C.3 0 **** -0.106
3750 C28 33.6528 29.5527 6.33621 C.ar 0 **** 0.042
3751 C29 32.335 29.1435 6.22922 C.ar 0 **** 0
3752 C30 32.1085 27.7761 6.20613 C.ar 0 **** 0
3753 C31 33.1444 26.8506 6.30078 C.ar 0 **** 0
3754 C32 30.6881 27.1993 6.09296 C.ar 0 **** 0
3755 C33 29.5871 28.2606 6.00359 C.3 0 **** -0.106
3756 C34 29.9447 29.5439 6.75031 C.3 0 **** -0.106
3757 C35 31.2022 30.135 6.1171 C.3 0 **** -0.106
3758 C36 32.7843 25.379 6.26988 C.ar 0 **** -0.1268
3759 C37 31.4842 24.9957 6.16915 C.ar 0 **** 0.0265
3760 C38 30.4645 25.8616 6.08523 C.ar 0 **** -0.1268
3761 C39 39.3681 22.2163 6.4063 C.3 0 **** -0.106
3762 C40 37.9092 22.0921 6.70361 C.ar 0 **** 0
3763 C41 37.2527 23.3231 6.76041 C.ar 0 **** 0
3764 C42 35.8817 23.2634 7.08627 C.ar 0 **** -0.1268
3765 C43 35.2166 22.0368 7.29267 C.ar 0 **** 0
3766 C44 35.9106 20.8111 7.20683 C.ar 0 **** 0
3767 C45 37.2836 20.8533 6.91647 C.ar 0 **** 0
3768 C46 38.0036 19.64 6.85878 C.ar 0 **** -0.1268
3769 C47 37.4066 18.4071 7.07326 C.ar 0 **** 0
3770 C48 36.0543 18.3881 7.36078 C.ar 0 **** -0.1268
3771 C49 35.285 19.5613 7.43445 C.ar 0 **** 0
3772 C50 33.912 19.5443 7.73786 C.ar 0 **** 0.042
3773 C51 33.2026 20.7261 7.82161 C.ar 0 **** -0.1268
3774 C52 33.8339 21.9495 7.61389 C.ar 0 **** -0.1268
3775 O53 47.5974 27.9441 5.06542 O.3 0 **** -0.452
3776 C54 46.2991 30.4795 5.13853 C.3 0 **** -0.159
3777 O55 41.7303 23.5149 6.01904 O.3 0 **** -0.452
3778 C56 38.3104 17.1819 6.98691 C.3 0 **** -0.106
3779 C57 37.5352 15.8617 7.05881 C.3 0 **** -0.159
3780 O58 31.2131 23.6803 6.15497 O.3 0 **** -0.4365
3781 O59 33.8615 30.9047 6.34596 O.3 0 **** -0.452
3782 O60 33.1991 18.4251 7.97069 O.3 0 **** -0.452
3783 H61 46.0485 25.7782 5.37792 H 0 **** 0.1268
3784 H62 43.7059 30.1632 5.48528 H 0 **** 0.1268
3785 H63 43.577 25.0032 6.65563 H 0 **** 0.053
3786 H64 43.3358 24.941 4.86906 H 0 **** 0.053
3787 H65 42.0401 30.3001 6.31577 H 0 **** 0.053
3788 H66 40.9593 30.3221 4.90055 H 0 **** 0.053
3789 H67 40.1334 30.3194 7.88323 H 0 **** 0.053
3790 H68 40.1307 31.746 6.79566 H 0 **** 0.053
3791 H69 37.8939 30.7397 6.85519 H 0 **** 0.053
3792 H70 38.579 30.585 5.2337 H 0 **** 0.053
3793 H71 35.5053 25.4928 5.80984 H 0 **** 0.053
3794 H72 36.225 29.9356 5.75272 H 0 **** 0.053
3795 H73 29.4073 28.4951 4.93456 H 0 **** 0.053
3796 H74 28.6616 27.8132 6.39189 H 0 **** 0.053
3797 H75 29.1143 30.258 6.68647 H 0 **** 0.053
3798 H76 30.1086 29.3342 7.81709 H 0 **** 0.053
3799 H77 31.023 30.359 5.05658 H 0 **** 0.053
3800 H78 31.4682 31.0672 6.60272 H 0 **** 0.053
3801 H79 33.5858 24.6669 6.31653 H 0 **** 0.1268
3802 H80 29.4417 25.5294 5.99893 H 0 **** 0.1268
3803 H81 39.6181 21.7278 5.45132 H 0 **** 0.053
3804 H82 39.9719 21.7907 7.22384 H 0 **** 0.053
3805 H83 35.2398 24.1204 7.22906 H 0 **** 0.1268
3806 H84 39.0855 19.6592 6.63276 H 0 **** 0.1268
3807 H85 35.5832 17.424 7.53491 H 0 **** 0.1268
3808 H86 32.1271 20.7369 8.06382 H 0 **** 0.1268
3809 H87 33.2538 22.9091 7.72205 H 0 **** 0.1268
3810 H88 47.8968 27.0455 5.08953 H 0 **** 0.41
3811 H89 47.3049 30.4146 5.57028 H 0 **** 0.053
3812 H90 45.7901 31.3148 5.63943 H 0 **** 0.053
3813 H91 46.4056 30.7286 4.07067 H 0 **** 0.053
3814 H92 41.5028 22.5978 6.08535 H 0 **** 0.41
3815 H93 38.8703 17.2049 6.04638 H 0 **** 0.053
3816 H94 38.2163 14.9911 6.98284 H 0 **** 0.053
3817 H95 36.8013 15.772 6.23491 H 0 **** 0.053
3818 H96 36.991 15.7583 8.01621 H 0 **** 0.053
3819 H97 32.0053 23.1682 6.12362 H 0 **** 0.41
3820 H98 34.7837 31.0941 6.40294 H 0 **** 0.41
3821 H99 33.7666 17.668 7.90128 H 0 **** 0.41
3822 H100 35.532 25.8783 7.61602 H 0 **** 0.053
3823 H101 36.1791 29.7115 7.52158 H 0 **** 0.053
3824 H102 39.0423 17.2069 7.80231 H 0 **** 0.053
3825 C1 24.8631 17.7602 52.9869 C.ar 0 **** 0.042
3826 C2 25.2492 18.2036 54.2381 C.ar 0 **** -0.1268
3827 C3 24.5175 19.1754 54.9004 C.ar 0 **** 0
3828 C4 23.3753 19.7325 54.3235 C.ar 0 **** 0
3829 C5 22.9863 19.268 53.0635 C.ar 0 **** -0.1268
3830 C6 23.7191 18.3044 52.387 C.ar 0 **** 0
3831 C7 22.8519 20.7126 55.2628 C.ar 0 **** 0
3832 C8 23.6751 20.7102 56.3752 C.ar 0 **** 0
3833 C9 24.8058 19.7469 56.2552 C.3 0 **** -0.106
3834 C10 23.3968 21.5488 57.4489 C.ar 0 **** 0
3835 C11 22.2775 22.407 57.4209 C.ar 0 **** 0
3836 C12 21.4729 22.3729 56.2492 C.ar 0 **** 0
3837 C13 21.7604 21.5389 55.1629 C.ar 0 **** 0
3838 C14 20.8755 21.5397 53.9482 C.3 0 **** -0.106
3839 C15 20.2674 22.9231 53.7166 C.3 0 **** -0.106
3840 C16 19.435 23.2633 54.9228 C.3 0 **** -0.106
3841 C17 20.2599 23.2999 56.1919 C.ar 0 **** 0
3842 C18 19.9119 24.1106 57.224 C.ar 0 **** 0
3843 C19 20.6549 24.1349 58.3707 C.ar 0 **** 0
3844 C20 21.9679 23.2715 58.5282 C.ar 0 **** 0
3845 C21 22.8996 23.2654 59.6423 C.ar 0 **** 0
3846 C22 23.9633 22.3579 59.5939 C.ar 0 **** 0
3847 C23 24.2281 21.5326 58.557 C.ar 0 **** 0.042
3848 C24 20.215 25.0252 59.5237 C.3 0 **** -0.106
3849 C25 18.8002 25.6643 59.4088 C.ar 0 **** 0
3850 C26 18.1151 25.629 58.2192 C.ar 0 **** 0
3851 C27 18.6611 24.9564 57.0023 C.3 0 **** -0.106
3852 C28 16.872 26.2469 58.1012 C.ar 0 **** 0.042
3853 C29 16.2865 26.9266 59.1555 C.ar 0 **** 0
3854 C30 16.9875 26.9416 60.3514 C.ar 0 **** 0
3855 C31 18.2286 26.3262 60.4921 C.ar 0 **** 0
3856 C32 16.4369 27.6569 61.5958 C.ar 0 **** 0
3857 C33 15.0749 28.3251 61.3822 C.3 0 **** -0.106
3858 C34 14.8745 28.806 59.9467 C.3 0 **** -0.106
3859 C35 14.9392 27.5944 59.0196 C.3 0 **** -0.106
3860 C36 18.9081 26.4035 61.8443 C.ar 0 **** -0.1268
3861 C37 18.3153 27.0702 62.8696 C.ar 0 **** 0.0265
3862 C38 17.1265 27.6803 62.7634 C.ar 0 **** -0.1268
3863 C39 24.8769 22.332 60.7627 C.3 0 **** -0.106
3864 C40 24.2313 23.4317 61.5412 C.ar 0 **** 0
3865 C41 23.1053 23.9644 60.9104 C.ar 0 **** 0
3866 C42 22.487 25.0393 61.5825 C.ar 0 **** -0.1268
3867 C43 22.9526 25.5068 62.8291 C.ar 0 **** 0
3868 C44 24.083 24.9289 63.445 C.ar 0 **** 0
3869 C45 24.7316 23.8798 62.7741 C.ar 0 **** 0
3870 C46 25.884 23.3095 63.3577 C.ar 0 **** -0.1268
3871 C47 26.3978 23.7419 64.5708 C.ar 0 **** 0
3872 C48 25.7465 24.7786 65.2131 C.ar 0 **** -0.1268
3873 C49 24.5973 25.3879 64.6821 C.ar 0 **** 0
3874 C50 23.9393 26.4487 65.3296 C.ar 0 **** 0.042
3875 C51 22.8262 27.0313 64.7564 C.ar 0 **** -0.1268
3876 C52 22.342 26.583 63.5305 C.ar 0 **** -0.1268
3877 O53 25.5836 16.7932 52.3275 O.3 0 **** -0.452
3878 C54 23.2693 17.817 51.0182 C.3 0 **** -0.159
3879 O55 25.2923 20.7126 58.6129 O.3 0 **** -0.452
3880 C56 27.6529 23.0385 65.0748 C.3 0 **** -0.106
3881 C57 28.044 23.4573 66.4962 C.3 0 **** -0.159
3882 O58 18.9589 27.1176 64.0476 O.3 0 **** -0.4365
3883 O59 16.1597 26.2238 56.933 O.3 0 **** -0.452
3884 O60 24.3222 26.9724 66.5106 O.3 0 **** -0.452
3885 H61 26.1498 17.7934 54.7497 H 0 **** 0.1268
3886 H62 22.0881 19.6184 52.5368 H 0 **** 0.1268
3887 H63 25.7994 20.2304 56.2599 H 0 **** 0.053
3888 H64 24.7848 18.9441 57.015 H 0 **** 0.053
3889 H65 21.4287 21.2869 53.0482 H 0 **** 0.053
3890 H66 20.0483 20.8053 54.0653 H 0 **** 0.053
3891 H67 21.072 23.6786 53.5424 H 0 **** 0.053
3892 H68 19.6345 22.9226 52.7804 H 0 **** 0.053
3893 H69 18.9484 24.2294 54.7406 H 0 **** 0.053
3894 H70 18.6299 22.5139 55.0208 H 0 **** 0.053
3895 H71 20.2334 24.4185 60.4534 H 0 **** 0.053
3896 H72 17.8875 24.2869 56.6128 H 0 **** 0.053
3897 H73 14.279 27.5972 61.6408 H 0 **** 0.053
3898 H74 14.9949 29.1533 62.0998 H 0 **** 0.053
3899 H75 13.903 29.3067 59.8518 H 0 **** 0.053
3900 H76 15.6449 29.5429 59.6781 H 0 **** 0.053
3901 H77 14.1529 26.8741 59.2831 H 0 **** 0.053
3902 H78 14.77 27.895 57.9917 H 0 **** 0.053
3903 H79 19.8524 25.9066 61.9584 H 0 **** 0.1268
3904 H80 16.6756 28.1966 63.5963 H 0 **** 0.1268
3905 H81 24.8433 21.3828 61.3203 H 0 **** 0.053
3906 H82 25.9175 22.5907 60.5089 H 0 **** 0.053
3907 H83 21.6452 25.6035 61.2084 H 0 **** 0.1268
3908 H84 26.4054 22.4841 62.8392 H 0 **** 0.1268
3909 H85 26.1503 25.1249 66.1612 H 0 **** 0.1268
3910 H86 22.2991 27.8689 65.2422 H 0 **** 0.1268
3911 H87 21.4563 27.0905 63.054 H 0 **** 0.1268
3912 H88 26.3195 16.5513 52.8725 H 0 **** 0.41
3913 H89 24.1312 17.5549 50.3934 H 0 **** 0.053
3914 H90 22.702 18.5852 50.4745 H 0 **** 0.053
3915 H91 22.637 16.9199 51.1151 H 0 **** 0.053
3916 H92 25.7543 20.8287 59.4317 H 0 **** 0.41
3917 H93 27.4976 21.955 65.0619 H 0 **** 0.053
3918 H94 28.9524 22.9224 66.8373 H 0 **** 0.053
3919 H95 27.2418 23.2318 67.2249 H 0 **** 0.053
3920 H96 28.2695 24.5385 66.5571 H 0 **** 0.053
3921 H97 19.7367 26.583 64.0334 H 0 **** 0.41
3922 H98 16.6386 25.7546 56.2691 H 0 **** 0.41
3923 H99 25.1006 26.5245 66.8169 H 0 **** 0.41
3924 H100 20.9289 25.8736 59.5532 H 0 **** 0.053
3925 H101 18.8991 25.7125 56.2451 H 0 **** 0.053
3926 H102 28.4881 23.2556 64.4004 H 0 **** 0.053
3927 C1 53.8051 -3.49261 26.4076 C.ar 0 **** 0.042
3928 C2 53.8231 -3.52621 27.7896 C.ar 0 **** -0.1268
3929 C3 53.9417 -2.3577 28.5239 C.ar 0 **** 0
3930 C4 54.047 -1.11882 27.8901 C.ar 0 **** 0
3931 C5 54.0141 -1.09446 26.4926 C.ar 0 **** -0.1268
3932 C6 53.9084 -2.25993 25.7483 C.ar 0 **** 0
3933 C7 54.161 -0.109873 28.9322 C.ar 0 **** 0
3934 C8 54.1076 -0.758529 30.1534 C.ar 0 **** 0
3935 C9 53.969 -2.23595 30.0172 C.3 0 **** -0.106
3936 C10 54.1777 -0.0268703 31.3339 C.ar 0 **** 0
3937 C11 54.3013 1.37797 31.304 C.ar 0 **** 0
3938 C12 54.3602 1.9889 30.0215 C.ar 0 **** 0
3939 C13 54.3033 1.25175 28.8334 C.ar 0 **** 0
3940 C14 54.3671 1.94734 27.5027 C.3 0 **** -0.106
3941 C15 55.229 3.20731 27.5861 C.3 0 **** -0.106
3942 C16 54.5898 4.13182 28.5862 C.3 0 **** -0.106
3943 C17 54.503 3.50879 29.9635 C.ar 0 **** 0
3944 C18 54.5344 4.28168 31.0795 C.ar 0 **** 0
3945 C19 54.4478 3.71586 32.3205 C.ar 0 **** 0
3946 C20 54.3621 2.1511 32.5156 C.ar 0 **** 0
3947 C21 54.358 1.40999 33.7645 C.ar 0 **** 0
3948 C22 54.2005 0.021639 33.6949 C.ar 0 **** 0
3949 C23 54.1195 -0.689999 32.5489 C.ar 0 **** 0.042
3950 C24 54.4459 4.61335 33.5493 C.3 0 **** -0.106
3951 C25 54.2914 6.14115 33.2943 C.ar 0 **** 0
3952 C26 54.4156 6.65122 32.0254 C.ar 0 **** 0
3953 C27 54.6634 5.78258 30.8357 C.3 0 **** -0.106
3954 C28 54.3311 8.02435 31.8044 C.ar 0 **** 0.042
3955 C29 54.1358 8.92396 32.8381 C.ar 0 **** 0
3956 C30 54.0013 8.38964 34.1103 C.ar 0 **** 0
3957 C31 54.078 7.02053 34.3524 C.ar 0 **** 0
3958 C32 53.7742 9.28659 35.3377 C.ar 0 **** 0
3959 C33 53.7079 10.7829 35.0157 C.3 0 **** -0.106
3960 C34 54.5675 11.164 33.8121 C.3 0 **** -0.106
3961 C35 54.0457 10.4108 32.5906 C.3 0 **** -0.106
3962 C36 53.9207 6.54414 35.7819 C.ar 0 **** -0.1268
3963 C37 53.7287 7.44208 36.7836 C.ar 0 **** 0.0265
3964 C38 53.6569 8.76549 36.5841 C.ar 0 **** -0.1268
3965 C39 54.1502 -0.713316 34.9827 C.3 0 **** -0.106
3966 C40 54.3614 0.457994 35.8859 C.ar 0 **** 0
3967 C41 54.4778 1.66811 35.1992 C.ar 0 **** 0
3968 C42 54.727 2.79916 36.0042 C.ar 0 **** -0.1268
3969 C43 54.8046 2.71215 37.4098 C.ar 0 **** 0
3970 C44 54.6615 1.47296 38.0694 C.ar 0 **** 0
3971 C45 54.4466 0.330961 37.2815 C.ar 0 **** 0
3972 C46 54.3343 -0.923605 37.9194 C.ar 0 **** -0.1268
3973 C47 54.4236 -1.07171 39.2951 C.ar 0 **** 0
3974 C48 54.6392 0.064836 40.0523 C.ar 0 **** -0.1268
3975 C49 54.7619 1.33999 39.4756 C.ar 0 **** 0
3976 C50 54.9937 2.495 40.2435 C.ar 0 **** 0.042
3977 C51 55.1298 3.72402 39.6289 C.ar 0 **** -0.1268
3978 C52 55.0473 3.83824 38.2438 C.ar 0 **** -0.1268
3979 O53 53.6856 -4.64952 25.675 O.3 0 **** -0.452
3980 C54 53.8722 -2.20149 24.2288 C.3 0 **** -0.159
3981 O55 53.9872 -2.02678 32.6023 O.3 0 **** -0.452
3982 C56 54.2911 -2.48826 39.8435 C.3 0 **** -0.106
3983 C57 54.2229 -2.53245 41.3741 C.3 0 **** -0.159
3984 O58 53.6075 6.97417 38.0366 O.3 0 **** -0.4365
3985 O59 54.4438 8.56442 30.5519 O.3 0 **** -0.452
3986 O60 55.1067 2.50422 41.5862 O.3 0 **** -0.452
3987 H61 53.7387 -4.48523 28.3507 H 0 **** 0.1268
3988 H62 54.0587 -0.170994 25.8995 H 0 **** 0.1268
3989 H63 54.826 -2.79929 30.4285 H 0 **** 0.053
3990 H64 53.0299 -2.63317 30.4446 H 0 **** 0.053
3991 H65 54.8116 1.31461 26.7399 H 0 **** 0.053
3992 H66 53.3485 2.23776 27.1632 H 0 **** 0.053
3993 H67 56.276 2.94505 27.8751 H 0 **** 0.053
3994 H68 55.3013 3.70188 26.5727 H 0 **** 0.053
3995 H69 55.1694 5.06274 28.6104 H 0 **** 0.053
3996 H70 53.5782 4.39496 28.23 H 0 **** 0.053
3997 H71 53.6076 4.29763 34.2052 H 0 **** 0.053
3998 H72 53.9283 6.04606 30.0686 H 0 **** 0.053
3999 H73 52.6516 11.0554 34.8156 H 0 **** 0.053
4000 H74 54.0128 11.3305 35.9184 H 0 **** 0.053
4001 H75 54.5158 12.2465 33.6428 H 0 **** 0.053
4002 H76 55.622 10.9167 34.0005 H 0 **** 0.053
4003 H77 52.9981 10.6801 32.3995 H 0 **** 0.053
4004 H78 54.6146 10.6806 31.708 H 0 **** 0.053
4005 H79 53.9521 5.48722 35.9637 H 0 **** 0.1268
4006 H80 53.4904 9.45431 37.3975 H 0 **** 0.1268
4007 H81 53.175 -1.18773 35.1751 H 0 **** 0.053
4008 H82 54.9631 -1.44828 35.0975 H 0 **** 0.053
4009 H83 54.9023 3.79853 35.6337 H 0 **** 0.1268
4010 H84 54.1665 -1.83085 37.3105 H 0 **** 0.1268
4011 H85 54.7154 -0.0476048 41.1308 H 0 **** 0.1268
4012 H86 55.3166 4.64226 40.2099 H 0 **** 0.1268
4013 H87 55.1983 4.83988 37.7507 H 0 **** 0.1268
4014 H88 53.6279 -5.37586 26.2812 H 0 **** 0.41
4015 H89 54.3481 -3.0872 23.792 H 0 **** 0.053
4016 H90 54.4079 -1.32495 23.8389 H 0 **** 0.053
4017 H91 52.832 -2.16394 23.8677 H 0 **** 0.053
4018 H92 53.9665 -2.32118 33.5023 H 0 **** 0.41
4019 H93 53.3851 -2.95361 39.442 H 0 **** 0.053
4020 H94 54.1159 -3.57216 41.7415 H 0 **** 0.053
4021 H95 53.3579 -1.96087 41.7621 H 0 **** 0.053
4022 H96 55.1406 -2.12344 41.8365 H 0 **** 0.053
4023 H97 53.5496 6.0324 38.048 H 0 **** 0.41
4024 H98 54.5851 7.88208 29.9158 H 0 **** 0.41
4025 H99 55.0019 1.62122 41.9167 H 0 **** 0.41
4026 H100 55.4368 4.48547 34.0311 H 0 **** 0.053
4027 H101 55.6718 5.97297 30.4503 H 0 **** 0.053
4028 H102 55.1425 -3.09252 39.51 H 0 **** 0.053
4029 C1 65.9845 48.0686 86.5328 C.ar 0 **** 0.042
4030 C2 67.2228 47.7855 87.0786 C.ar 0 **** -0.1268
4031 C3 68.2962 47.4608 86.2657 C.ar 0 **** 0
4032 C4 68.1567 47.4098 84.878 C.ar 0 **** 0
4033 C5 66.9038 47.711 84.3354 C.ar 0 **** -0.1268
4034 C6 65.8199 48.0248 85.1415 C.ar 0 **** 0
4035 C7 69.4516 47.0392 84.3279 C.ar 0 **** 0
4036 C8 70.3315 46.8922 85.3858 C.ar 0 **** 0
4037 C9 69.6909 47.1383 86.7085 C.3 0 **** -0.106
4038 C10 71.6587 46.5536 85.1455 C.ar 0 **** 0
4039 C11 72.1247 46.3583 83.8285 C.ar 0 **** 0
4040 C12 71.1742 46.5141 82.7827 C.ar 0 **** 0
4041 C13 69.8355 46.8415 83.025 C.ar 0 **** 0
4042 C14 68.8714 46.9969 81.8826 C.3 0 **** -0.106
4043 C15 69.2389 46.065 80.7277 C.3 0 **** -0.106
4044 C16 70.6157 46.4451 80.2552 C.3 0 **** -0.106
4045 C17 71.6533 46.299 81.3481 C.ar 0 **** 0
4046 C18 72.9449 46.0083 81.0462 C.ar 0 **** 0
4047 C19 73.8798 45.885 82.0352 C.ar 0 **** 0
4048 C20 73.4971 46.0202 83.5615 C.ar 0 **** 0
4049 C21 74.3581 45.8246 84.7146 C.ar 0 **** 0
4050 C22 73.8146 46.0715 85.9798 C.ar 0 **** 0
4051 C23 72.5284 46.4133 86.2146 C.ar 0 **** 0.042
4052 C24 75.3263 45.5979 81.6603 C.3 0 **** -0.106
4053 C25 75.6895 45.7114 80.1509 C.ar 0 **** 0
4054 C26 74.701 45.8066 79.2025 C.ar 0 **** 0
4055 C27 73.2512 45.8438 79.5603 C.3 0 **** -0.106
4056 C28 75.0237 45.8541 77.8479 C.ar 0 **** 0.042
4057 C29 76.3329 45.7942 77.4022 C.ar 0 **** 0
4058 C30 77.3175 45.71 78.3744 C.ar 0 **** 0
4059 C31 77.0169 45.6658 79.7333 C.ar 0 **** 0
4060 C32 78.8082 45.645 78.0041 C.ar 0 **** 0
4061 C33 79.0808 45.6864 76.497 C.3 0 **** -0.106
4062 C34 77.9564 45.0559 75.6783 C.3 0 **** -0.106
4063 C35 76.6747 45.8462 75.9324 C.3 0 **** -0.106
4064 C36 78.1708 45.5733 80.7111 C.ar 0 **** -0.1268
4065 C37 79.45 45.5205 80.2552 C.ar 0 **** 0.0265
4066 C38 79.7714 45.5524 78.9543 C.ar 0 **** -0.1268
4067 C39 74.7224 45.9134 87.1426 C.3 0 **** -0.106
4068 C40 75.9315 45.4646 86.3883 C.ar 0 **** 0
4069 C41 75.7311 45.4145 85.0074 C.ar 0 **** 0
4070 C42 76.8287 44.9499 84.2532 C.ar 0 **** -0.1268
4071 C43 78.0567 44.6063 84.8562 C.ar 0 **** 0
4072 C44 78.227 44.6893 86.2545 C.ar 0 **** 0
4073 C45 77.1341 45.1179 87.0246 C.ar 0 **** 0
4074 C46 77.2732 45.1764 88.4284 C.ar 0 **** -0.1268
4075 C47 78.4493 44.8314 89.0766 C.ar 0 **** 0
4076 C48 79.5124 44.4089 88.3 C.ar 0 **** -0.1268
4077 C49 79.4345 44.3272 86.8997 C.ar 0 **** 0
4078 C50 80.5112 43.887 86.1096 C.ar 0 **** 0.042
4079 C51 80.3791 43.8021 84.7376 C.ar 0 **** -0.1268
4080 C52 79.1803 44.1435 84.1173 C.ar 0 **** -0.1268
4081 O53 64.9172 48.3937 87.3356 O.3 0 **** -0.452
4082 C54 64.4696 48.3506 84.5218 C.3 0 **** -0.159
4083 O55 72.1106 46.6089 87.4773 O.3 0 **** -0.452
4084 C56 78.4514 44.936 90.5977 C.3 0 **** -0.106
4085 C57 79.8379 44.7094 91.2103 C.3 0 **** -0.159
4086 O58 80.439 45.43 81.1596 O.3 0 **** -0.4365
4087 O59 74.0637 45.9556 76.878 O.3 0 **** -0.452
4088 O60 81.7114 43.5184 86.5987 O.3 0 **** -0.452
4089 H61 67.3951 47.8139 88.179 H 0 **** 0.1268
4090 H62 66.6968 47.7294 83.2567 H 0 **** 0.1268
4091 H63 69.6845 46.2513 87.3675 H 0 **** 0.053
4092 H64 70.1207 47.998 87.2549 H 0 **** 0.053
4093 H65 67.8565 46.7451 82.1766 H 0 **** 0.053
4094 H66 68.8746 48.0438 81.5067 H 0 **** 0.053
4095 H67 69.1942 44.9985 81.058 H 0 **** 0.053
4096 H68 68.4869 46.1621 79.8899 H 0 **** 0.053
4097 H69 70.8645 45.8197 79.389 H 0 **** 0.053
4098 H70 70.5923 47.4898 79.8982 H 0 **** 0.053
4099 H71 75.9732 46.3102 82.2143 H 0 **** 0.053
4100 H72 72.7997 46.6973 79.0445 H 0 **** 0.053
4101 H73 79.2114 46.7441 76.1897 H 0 **** 0.053
4102 H74 80.0409 45.1824 76.319 H 0 **** 0.053
4103 H75 78.2122 45.0782 74.6118 H 0 **** 0.053
4104 H76 77.8244 44.0007 75.9569 H 0 **** 0.053
4105 H77 76.8108 46.894 75.632 H 0 **** 0.053
4106 H78 75.859 45.4446 75.3417 H 0 **** 0.053
4107 H79 77.9389 45.566 81.7588 H 0 **** 0.1268
4108 H80 80.7966 45.5173 78.6203 H 0 **** 0.1268
4109 H81 74.9179 46.8585 87.6734 H 0 **** 0.053
4110 H82 74.3923 45.1371 87.8513 H 0 **** 0.053
4111 H83 76.8257 44.7939 83.1843 H 0 **** 0.1268
4112 H84 76.4198 45.5107 89.0464 H 0 **** 0.1268
4113 H85 80.4346 44.1324 88.8048 H 0 **** 0.1268
4114 H86 81.2076 43.4544 84.0987 H 0 **** 0.1268
4115 H87 79.0713 44.0342 83.0014 H 0 **** 0.1268
4116 H88 65.2099 48.3724 88.2366 H 0 **** 0.41
4117 H89 63.6508 48.0194 85.1712 H 0 **** 0.053
4118 H90 64.3313 47.8515 83.5527 H 0 **** 0.053
4119 H91 64.3641 49.4371 84.3728 H 0 **** 0.053
4120 H92 72.8229 46.4712 88.0863 H 0 **** 0.41
4121 H93 78.0971 45.9277 90.8976 H 0 **** 0.053
4122 H94 79.8095 44.8023 92.314 H 0 **** 0.053
4123 H95 80.5744 45.449 90.8417 H 0 **** 0.053
4124 H96 80.2244 43.6979 90.9851 H 0 **** 0.053
4125 H97 80.1061 45.5131 82.0388 H 0 **** 0.41
4126 H98 73.206 45.9796 77.2704 H 0 **** 0.41
4127 H99 81.7055 43.6023 87.5436 H 0 **** 0.41
4128 H100 75.5175 44.5416 81.9392 H 0 **** 0.053
4129 H101 72.7691 44.9199 79.2201 H 0 **** 0.053
4130 H102 77.755 44.2011 91.0174 H 0 **** 0.053
4131 C1 29.183 13.8771 78.859 C.ar 0 **** 0.042
4132 C2 28.3439 14.9522 78.6325 C.ar 0 **** -0.1268
4133 C3 28.7939 16.068 77.9462 C.ar 0 **** 0
4134 C4 30.103 16.1372 77.4674 C.ar 0 **** 0
4135 C5 30.9394 15.0392 77.69 C.ar 0 **** -0.1268
4136 C6 30.5021 13.9228 78.3869 C.ar 0 **** 0
4137 C7 30.2531 17.4251 76.8074 C.ar 0 **** 0
4138 C8 29.0397 18.0852 76.8923 C.ar 0 **** 0
4139 C9 28.0042 17.299 77.6204 C.3 0 **** -0.106
4140 C10 28.8917 19.3455 76.3237 C.ar 0 **** 0
4141 C11 29.9683 19.9646 75.6548 C.ar 0 **** 0
4142 C12 31.1927 19.2434 75.6066 C.ar 0 **** 0
4143 C13 31.3459 17.9809 76.1904 C.ar 0 **** 0
4144 C14 32.6618 17.2596 76.1087 C.3 0 **** -0.106
4145 C15 33.8271 18.2492 76.0981 C.3 0 **** -0.106
4146 C16 33.6751 19.1199 74.8806 C.3 0 **** -0.106
4147 C17 32.3759 19.8973 74.895 C.ar 0 **** 0
4148 C18 32.2823 21.1066 74.2843 C.ar 0 **** 0
4149 C19 31.1056 21.8014 74.2932 C.ar 0 **** 0
4150 C20 29.8286 21.2624 75.0501 C.ar 0 **** 0
4151 C21 28.5494 21.9284 75.2211 C.ar 0 **** 0
4152 C22 27.5319 21.2226 75.8719 C.ar 0 **** 0
4153 C23 27.6699 19.9924 76.4138 C.ar 0 **** 0.042
4154 C24 31.0234 23.1354 73.5657 C.3 0 **** -0.106
4155 C25 32.2245 23.5015 72.6456 C.ar 0 **** 0
4156 C26 33.3906 22.7786 72.7029 C.ar 0 **** 0
4157 C27 33.5573 21.601 73.6067 C.3 0 **** -0.106
4158 C28 34.4838 23.1375 71.9173 C.ar 0 **** 0.042
4159 C29 34.4512 24.2308 71.069 C.ar 0 **** 0
4160 C30 33.2622 24.9419 71.0161 C.ar 0 **** 0
4161 C31 32.1561 24.5967 71.7884 C.ar 0 **** 0
4162 C32 33.1009 26.1698 70.1055 C.ar 0 **** 0
4163 C33 34.3497 26.5066 69.2859 C.3 0 **** -0.106
4164 C34 35.6432 26.125 70.001 C.3 0 **** -0.106
4165 C35 35.6408 24.6141 70.2217 C.3 0 **** -0.106
4166 C36 30.9052 25.4409 71.6503 C.ar 0 **** -0.1268
4167 C37 30.8895 26.506 70.8062 C.ar 0 **** 0.0265
4168 C38 31.9409 26.8706 70.0589 C.ar 0 **** -0.1268
4169 C39 26.2178 21.9003 75.9945 C.3 0 **** -0.106
4170 C40 26.6022 23.1926 75.3507 C.ar 0 **** 0
4171 C41 27.9258 23.2136 74.9068 C.ar 0 **** 0
4172 C42 28.353 24.43 74.3344 C.ar 0 **** -0.1268
4173 C43 27.4824 25.5292 74.1816 C.ar 0 **** 0
4174 C44 26.1444 25.4624 74.625 C.ar 0 **** 0
4175 C45 25.7113 24.2707 75.2281 C.ar 0 **** 0
4176 C46 24.3858 24.1948 75.7086 C.ar 0 **** -0.1268
4177 C47 23.4928 25.2503 75.6042 C.ar 0 **** 0
4178 C48 23.9403 26.4158 75.0101 C.ar 0 **** -0.1268
4179 C49 25.2479 26.5531 74.515 C.ar 0 **** 0
4180 C50 25.7079 27.7418 73.921 C.ar 0 **** 0.042
4181 C51 27.0096 27.8365 73.4695 C.ar 0 **** -0.1268
4182 C52 27.8863 26.7629 73.6005 C.ar 0 **** -0.1268
4183 O53 28.74 12.7667 79.5372 O.3 0 **** -0.452
4184 C54 31.4346 12.7423 78.6111 C.3 0 **** -0.159
4185 O55 26.6255 19.4159 77.0335 O.3 0 **** -0.452
4186 C56 22.0963 25.0277 76.1747 C.3 0 **** -0.106
4187 C57 21.1305 26.1745 75.856 C.3 0 **** -0.159
4188 O58 29.758 27.2244 70.7172 O.3 0 **** -0.4365
4189 O59 35.6565 22.4328 71.9429 O.3 0 **** -0.452
4190 O60 24.9563 28.8473 73.7532 O.3 0 **** -0.452
4191 H61 27.2879 14.9524 78.9878 H 0 **** 0.1268
4192 H62 31.975 14.9805 77.3285 H 0 **** 0.1268
4193 H63 27.6553 17.7835 78.5504 H 0 **** 0.053
4194 H64 27.1315 17.0324 76.9963 H 0 **** 0.053
4195 H65 32.8149 16.6056 76.9623 H 0 **** 0.053
4196 H66 32.7138 16.6426 75.1846 H 0 **** 0.053
4197 H67 33.8357 18.8514 77.0392 H 0 **** 0.053
4198 H68 34.8122 17.6962 76.0745 H 0 **** 0.053
4199 H69 34.5382 19.7953 74.8335 H 0 **** 0.053
4200 H70 33.7198 18.4818 73.9805 H 0 **** 0.053
4201 H71 30.1094 23.1279 72.9354 H 0 **** 0.053
4202 H72 33.9439 20.77 73.0083 H 0 **** 0.053
4203 H73 34.2931 25.9731 68.3157 H 0 **** 0.053
4204 H74 34.3177 27.5797 69.0591 H 0 **** 0.053
4205 H75 36.5081 26.4202 69.394 H 0 **** 0.053
4206 H76 35.7246 26.6578 70.9595 H 0 **** 0.053
4207 H77 35.5793 24.0913 69.2576 H 0 **** 0.053
4208 H78 36.5614 24.3004 70.7013 H 0 **** 0.053
4209 H79 30.0454 25.158 72.2267 H 0 **** 0.1268
4210 H80 31.8995 27.7178 69.3928 H 0 **** 0.1268
4211 H81 25.4163 21.4009 75.4276 H 0 **** 0.053
4212 H82 25.9054 22.0605 77.0389 H 0 **** 0.053
4213 H83 29.3573 24.6375 73.9949 H 0 **** 0.1268
4214 H84 24.0325 23.2628 76.1868 H 0 **** 0.1268
4215 H85 23.2447 27.2475 74.931 H 0 **** 0.1268
4216 H86 27.3939 28.7603 73.0062 H 0 **** 0.1268
4217 H87 28.9568 26.8649 73.2643 H 0 **** 0.1268
4218 H88 27.8354 12.9118 79.7797 H 0 **** 0.41
4219 H89 31.2224 12.2523 79.5686 H 0 **** 0.053
4220 H90 32.489 13.0506 78.6362 H 0 **** 0.053
4221 H91 31.3092 11.9929 77.8132 H 0 **** 0.053
4222 H92 25.8706 19.9874 77.0111 H 0 **** 0.41
4223 H93 21.6786 24.0997 75.7706 H 0 **** 0.053
4224 H94 20.123 25.9793 76.2735 H 0 **** 0.053
4225 H95 21.0074 26.315 74.7649 H 0 **** 0.053
4226 H96 21.4751 27.1322 76.289 H 0 **** 0.053
4227 H97 29.0687 26.841 71.2351 H 0 **** 0.41
4228 H98 35.5958 21.7221 72.5604 H 0 **** 0.41
4229 H99 24.0854 28.6923 74.0964 H 0 **** 0.41
4230 H100 30.9945 23.9181 74.351 H 0 **** 0.053
4231 H101 34.28 21.8463 74.3936 H 0 **** 0.053
4232 H102 22.1583 24.9098 77.2626 H 0 **** 0.053
4233 C1 22.6904 81.1903 53.4435 C.ar 0 **** 0.042
4234 C2 21.4844 81.1492 52.769 C.ar 0 **** -0.1268
4235 C3 21.4496 81.0591 51.3873 C.ar 0 **** 0
4236 C4 22.6278 81.0102 50.6408 C.ar 0 **** 0
4237 C5 23.8423 81.0373 51.3335 C.ar 0 **** -0.1268
4238 C6 23.8875 81.1394 52.716 C.ar 0 **** 0
4239 C7 22.2458 80.9321 49.2388 C.ar 0 **** 0
4240 C8 20.8638 80.9117 49.179 C.ar 0 **** 0
4241 C9 20.2268 80.9993 50.5234 C.3 0 **** -0.106
4242 C10 20.2225 80.8177 47.9485 C.ar 0 **** 0
4243 C11 20.9667 80.7332 46.7527 C.ar 0 **** 0
4244 C12 22.3828 80.7661 46.8757 C.ar 0 **** 0
4245 C13 23.0257 80.8862 48.1119 C.ar 0 **** 0
4246 C14 24.5201 80.9234 48.1879 C.3 0 **** -0.106
4247 C15 25.1311 81.56 46.9435 C.3 0 **** -0.106
4248 C16 24.7172 80.7369 45.7526 C.3 0 **** -0.106
4249 C17 23.2119 80.6808 45.5948 C.ar 0 **** 0
4250 C18 22.6458 80.5446 44.3679 C.ar 0 **** 0
4251 C19 21.2872 80.4862 44.2312 C.ar 0 **** 0
4252 C20 20.3199 80.6234 45.4723 C.ar 0 **** 0
4253 C21 18.8686 80.673 45.4686 C.ar 0 **** 0
4254 C22 18.2176 80.7264 46.7059 C.ar 0 **** 0
4255 C23 18.8386 80.8045 47.9035 C.ar 0 **** 0.042
4256 C24 20.6858 80.2955 42.8472 C.3 0 **** -0.106
4257 C25 21.6758 79.9284 41.7039 C.ar 0 **** 0
4258 C26 23.0316 80.0328 41.8958 C.ar 0 **** 0
4259 C27 23.6232 80.4604 43.1988 C.3 0 **** -0.106
4260 C28 23.9161 79.7555 40.8555 C.ar 0 **** 0.042
4261 C29 23.4761 79.3833 39.5971 C.ar 0 **** 0
4262 C30 22.1045 79.2733 39.4259 C.ar 0 **** 0
4263 C31 21.2036 79.5394 40.4534 C.ar 0 **** 0
4264 C32 21.4947 78.8628 38.077 C.ar 0 **** 0
4265 C33 22.529 78.5957 36.9837 C.3 0 **** -0.106
4266 C34 23.7917 79.4381 37.1378 C.3 0 **** -0.106
4267 C35 24.4411 79.0857 38.474 C.3 0 **** -0.106
4268 C36 19.7255 79.3855 40.1564 C.ar 0 **** -0.1268
4269 C37 19.3125 79.0126 38.9163 C.ar 0 **** 0.0265
4270 C38 20.1537 78.7586 37.9045 C.ar 0 **** -0.1268
4271 C39 16.7345 80.727 46.6842 C.3 0 **** -0.106
4272 C40 16.56 80.7214 45.2004 C.ar 0 **** 0
4273 C41 17.7697 80.6884 44.5042 C.ar 0 **** 0
4274 C42 17.6608 80.7308 43.0987 C.ar 0 **** -0.1268
4275 C43 16.4098 80.7564 42.4478 C.ar 0 **** 0
4276 C44 15.2075 80.7684 43.1864 C.ar 0 **** 0
4277 C45 15.2976 80.7609 44.5875 C.ar 0 **** 0
4278 C46 14.1072 80.8058 45.3454 C.ar 0 **** -0.1268
4279 C47 12.8513 80.8527 44.7598 C.ar 0 **** 0
4280 C48 12.7848 80.8628 43.3788 C.ar 0 **** -0.1268
4281 C49 13.9333 80.822 42.5708 C.ar 0 **** 0
4282 C50 13.8676 80.8433 41.1662 C.ar 0 **** 0.042
4283 C51 15.0259 80.8246 40.4145 C.ar 0 **** -0.1268
4284 C52 16.273 80.7907 41.0326 C.ar 0 **** -0.1268
4285 O53 22.7287 81.2785 54.8146 O.3 0 **** -0.452
4286 C54 25.2235 81.165 53.4425 C.3 0 **** -0.159
4287 O55 18.1094 80.8708 49.0306 O.3 0 **** -0.452
4288 C56 11.655 80.9061 45.7036 C.3 0 **** -0.106
4289 C57 10.3129 80.7749 44.9751 C.3 0 **** -0.159
4290 O58 17.9923 78.8963 38.6983 O.3 0 **** -0.4365
4291 O59 25.2723 79.8425 41.0146 O.3 0 **** -0.452
4292 O60 12.7209 80.889 40.4601 O.3 0 **** -0.452
4293 H61 20.5115 81.1826 53.3109 H 0 **** 0.1268
4294 H62 24.8236 80.9675 50.8438 H 0 **** 0.1268
4295 H63 19.6186 81.9113 50.663 H 0 **** 0.053
4296 H64 19.6233 80.1111 50.7851 H 0 **** 0.053
4297 H65 24.8753 81.4821 49.0461 H 0 **** 0.053
4298 H66 24.8999 79.8922 48.2731 H 0 **** 0.053
4299 H67 24.7923 82.6205 46.8506 H 0 **** 0.053
4300 H68 26.2572 81.599 47.0306 H 0 **** 0.053
4301 H69 25.1903 81.1677 44.8609 H 0 **** 0.053
4302 H70 25.1191 79.7149 45.8638 H 0 **** 0.053
4303 H71 19.9304 79.4842 42.9091 H 0 **** 0.053
4304 H72 24.3905 79.7303 43.4753 H 0 **** 0.053
4305 H73 22.8027 77.5246 37.0251 H 0 **** 0.053
4306 H74 22.0395 78.7695 36.0163 H 0 **** 0.053
4307 H75 24.4838 79.2305 36.3124 H 0 **** 0.053
4308 H76 23.5461 80.5084 37.0936 H 0 **** 0.053
4309 H77 24.7036 78.0192 38.4989 H 0 **** 0.053
4310 H78 25.3593 79.6466 38.6084 H 0 **** 0.053
4311 H79 19.0335 79.5664 40.9564 H 0 **** 0.1268
4312 H80 19.799 78.4561 36.9317 H 0 **** 0.1268
4313 H81 16.2929 79.825 47.1362 H 0 **** 0.053
4314 H82 16.2921 81.6335 47.1275 H 0 **** 0.053
4315 H83 18.4942 80.7722 42.4129 H 0 **** 0.1268
4316 H84 14.1645 80.8018 46.4494 H 0 **** 0.1268
4317 H85 11.8022 80.9049 42.9159 H 0 **** 0.1268
4318 H86 14.9986 80.8469 39.3127 H 0 **** 0.1268
4319 H87 17.2119 80.8144 40.4108 H 0 **** 0.1268
4320 H88 21.8364 81.2997 55.133 H 0 **** 0.41
4321 H89 25.1669 81.7864 54.344 H 0 **** 0.053
4322 H90 26.0238 81.5822 52.8158 H 0 **** 0.053
4323 H91 25.5158 80.1483 53.7505 H 0 **** 0.053
4324 H92 17.1847 80.85 48.8278 H 0 **** 0.41
4325 H93 11.7315 80.0984 46.4388 H 0 **** 0.053
4326 H94 9.46468 80.8064 45.6871 H 0 **** 0.053
4327 H95 10.238 79.818 44.4238 H 0 **** 0.053
4328 H96 10.1559 81.5997 44.2551 H 0 **** 0.053
4329 H97 17.5029 79.0085 39.4978 H 0 **** 0.41
4330 H98 25.4811 80.1127 41.8943 H 0 **** 0.41
4331 H99 11.9841 80.9079 41.0575 H 0 **** 0.41
4332 H100 20.242 81.2712 42.5623 H 0 **** 0.053
4333 H101 24.0878 81.4462 43.0806 H 0 **** 0.053
4334 H102 11.6659 81.852 46.2572 H 0 **** 0.053
4335 C1 28.8087 88.0362 29.552 C.ar 0 **** 0.042
4336 C2 28.2717 86.9278 30.1789 C.ar 0 **** -0.1268
4337 C3 28.1937 85.7125 29.5191 C.ar 0 **** 0
4338 C4 28.649 85.5763 28.2067 C.ar 0 **** 0
4339 C5 29.1983 86.701 27.585 C.ar 0 **** -0.1268
4340 C6 29.2719 87.9235 28.2343 C.ar 0 **** 0
4341 C7 28.4238 84.1941 27.8128 C.ar 0 **** 0
4342 C8 27.8576 83.537 28.891 C.ar 0 **** 0
4343 C9 27.6535 84.4274 30.0683 C.3 0 **** -0.106
4344 C10 27.5491 82.1846 28.7974 C.ar 0 **** 0
4345 C11 27.8089 81.4675 27.6107 C.ar 0 **** 0
4346 C12 28.3833 82.1965 26.5336 C.ar 0 **** 0
4347 C13 28.6816 83.5605 26.6228 C.ar 0 **** 0
4348 C14 29.2909 84.2842 25.455 C.3 0 **** -0.106
4349 C15 28.8117 83.6863 24.1322 C.3 0 **** -0.106
4350 C16 29.2527 82.2484 24.0952 C.3 0 **** -0.106
4351 C17 28.6654 81.4431 25.235 C.ar 0 **** 0
4352 C18 28.4251 80.114 25.0957 C.ar 0 **** 0
4353 C19 27.9022 79.3895 26.1296 C.ar 0 **** 0
4354 C20 27.5074 80.0655 27.5012 C.ar 0 **** 0
4355 C21 26.8634 79.4454 28.6454 C.ar 0 **** 0
4356 C22 26.6747 80.2287 29.7889 C.ar 0 **** 0
4357 C23 26.9855 81.5399 29.8862 C.ar 0 **** 0.042
4358 C24 27.6822 77.8941 25.9539 C.3 0 **** -0.106
4359 C25 28.3042 77.2437 24.6838 C.ar 0 **** 0
4360 C26 28.7897 78.0284 23.6668 C.ar 0 **** 0
4361 C27 28.7831 79.5205 23.736 C.3 0 **** -0.106
4362 C28 29.2977 77.4472 22.5069 C.ar 0 **** 0.042
4363 C29 29.3226 76.0755 22.3228 C.ar 0 **** 0
4364 C30 28.8391 75.2994 23.3648 C.ar 0 **** 0
4365 C31 28.3315 75.8598 24.5341 C.ar 0 **** 0
4366 C32 28.8217 73.7645 23.2817 C.ar 0 **** 0
4367 C33 29.3811 73.2025 21.9708 C.3 0 **** -0.106
4368 C34 29.152 74.137 20.7849 C.3 0 **** -0.106
4369 C35 29.8746 75.4532 21.0627 C.3 0 **** -0.106
4370 C36 27.8286 74.9187 25.61 C.ar 0 **** -0.1268
4371 C37 27.866 73.5743 25.4137 C.ar 0 **** 0.0265
4372 C38 28.3397 73.0049 24.2965 C.ar 0 **** -0.1268
4373 C39 26.0591 79.5647 30.9641 C.3 0 **** -0.106
4374 C40 25.8375 78.226 30.3386 C.ar 0 **** 0
4375 C41 26.2953 78.1521 29.0214 C.ar 0 **** 0
4376 C42 26.0661 76.9235 28.3686 C.ar 0 **** -0.1268
4377 C43 25.4571 75.8332 29.0241 C.ar 0 **** 0
4378 C44 25.0255 75.9396 30.3635 C.ar 0 **** 0
4379 C45 25.2156 77.1665 31.0189 C.ar 0 **** 0
4380 C46 24.763 77.305 32.3492 C.ar 0 **** -0.1268
4381 C47 24.1418 76.2722 33.0346 C.ar 0 **** 0
4382 C48 23.9596 75.0745 32.3689 C.ar 0 **** -0.1268
4383 C49 24.3892 74.8767 31.0472 C.ar 0 **** 0
4384 C50 24.2071 73.6614 30.3645 C.ar 0 **** 0.042
4385 C51 24.6178 73.5235 29.0545 C.ar 0 **** -0.1268
4386 C52 25.2236 74.583 28.3875 C.ar 0 **** -0.1268
4387 O53 28.9019 89.2413 30.2053 O.3 0 **** -0.452
4388 C54 29.8768 89.1283 27.5362 C.3 0 **** -0.159
4389 O55 26.7418 82.1994 31.0319 O.3 0 **** -0.452
4390 C56 23.696 76.565 34.4623 C.3 0 **** -0.106
4391 C57 23.1839 75.3199 35.1958 C.3 0 **** -0.159
4392 O58 27.4018 72.7803 26.3926 O.3 0 **** -0.4365
4393 O59 29.7955 78.1998 21.4781 O.3 0 **** -0.452
4394 O60 23.6385 72.566 30.895 O.3 0 **** -0.452
4395 H61 27.8967 86.9756 31.2268 H 0 **** 0.1268
4396 H62 29.6126 86.6939 26.5678 H 0 **** 0.1268
4397 H63 26.5921 84.5515 30.3494 H 0 **** 0.053
4398 H64 28.2356 84.124 30.9581 H 0 **** 0.053
4399 H65 29.0117 85.3338 25.4428 H 0 **** 0.053
4400 H66 30.4009 84.2203 25.4903 H 0 **** 0.053
4401 H67 27.7022 83.7815 24.0405 H 0 **** 0.053
4402 H68 29.2456 84.2607 23.2612 H 0 **** 0.053
4403 H69 28.9635 81.827 23.1246 H 0 **** 0.053
4404 H70 30.3555 82.2142 24.142 H 0 **** 0.053
4405 H71 28.1105 77.377 26.8381 H 0 **** 0.053
4406 H72 29.7896 79.8727 23.4886 H 0 **** 0.053
4407 H73 30.4691 73.0273 22.0964 H 0 **** 0.053
4408 H74 28.9172 72.2202 21.8056 H 0 **** 0.053
4409 H75 29.5373 73.6775 19.8663 H 0 **** 0.053
4410 H76 28.0765 74.308 20.6337 H 0 **** 0.053
4411 H77 30.9506 75.274 21.1919 H 0 **** 0.053
4412 H78 29.7589 76.1324 20.2255 H 0 **** 0.053
4413 H79 27.4621 75.3512 26.5211 H 0 **** 0.1268
4414 H80 28.3644 71.9338 24.1704 H 0 **** 0.1268
4415 H81 26.7392 79.4876 31.8269 H 0 **** 0.053
4416 H82 25.1019 80.0168 31.2696 H 0 **** 0.053
4417 H83 26.3012 76.7139 27.3353 H 0 **** 0.1268
4418 H84 24.9046 78.2666 32.8767 H 0 **** 0.1268
4419 H85 23.4646 74.2693 32.9031 H 0 **** 0.1268
4420 H86 24.4702 72.5811 28.5029 H 0 **** 0.1268
4421 H87 25.5251 74.47 27.3087 H 0 **** 0.1268
4422 H88 28.5187 89.1421 31.0655 H 0 **** 0.41
4423 H89 29.3819 90.0457 27.8704 H 0 **** 0.053
4424 H90 29.7601 89.0744 26.445 H 0 **** 0.053
4425 H91 30.9491 89.2191 27.77 H 0 **** 0.053
4426 H92 26.3567 81.6177 31.6728 H 0 **** 0.41
4427 H93 24.5327 76.9859 35.0297 H 0 **** 0.053
4428 H94 22.8776 75.5528 36.2336 H 0 **** 0.053
4429 H95 23.962 74.5365 35.2622 H 0 **** 0.053
4430 H96 22.2973 74.8879 34.6967 H 0 **** 0.053
4431 H97 27.1817 73.28 27.1625 H 0 **** 0.41
4432 H98 29.7279 79.118 21.6843 H 0 **** 0.41
4433 H99 23.3455 72.7565 31.7773 H 0 **** 0.41
4434 H100 26.5864 77.7483 25.8628 H 0 **** 0.053
4435 H101 28.0714 79.9152 23.0016 H 0 **** 0.053
4436 H102 22.9019 77.3194 34.4436 H 0 **** 0.053
4437 C1 52.7982 70.9384 50.6606 C.ar 0 **** 0.042
4438 C2 52.0598 72.0273 51.0852 C.ar 0 **** -0.1268
4439 C3 52.679 73.1095 51.6885 C.ar 0 **** 0
4440 C4 54.0606 73.1291 51.8844 C.ar 0 **** 0
4441 C5 54.7997 72.0288 51.4395 C.ar 0 **** -0.1268
4442 C6 54.1877 70.935 50.8458 C.ar 0 **** 0
4443 C7 54.3854 74.3874 52.5384 C.ar 0 **** 0
4444 C8 53.2057 75.0917 52.705 C.ar 0 **** 0
4445 C9 52.0162 74.3559 52.1912 C.3 0 **** -0.106
4446 C10 53.2238 76.3504 53.2957 C.ar 0 **** 0
4447 C11 54.4373 76.9249 53.7285 C.ar 0 **** 0
4448 C12 55.6158 76.1521 53.5396 C.ar 0 **** 0
4449 C13 55.5961 74.8796 52.9579 C.ar 0 **** 0
4450 C14 56.8716 74.105 52.779 C.3 0 **** -0.106
4451 C15 57.8663 74.4257 53.8949 C.3 0 **** -0.106
4452 C16 58.1774 75.8957 53.8201 C.3 0 **** -0.106
4453 C17 56.9414 76.7496 54.0087 C.ar 0 **** 0
4454 C18 57.0301 77.9901 54.5538 C.ar 0 **** 0
4455 C19 55.913 78.7606 54.7152 C.ar 0 **** 0
4456 C20 54.476 78.231 54.3296 C.ar 0 **** 0
4457 C21 53.2006 78.8957 54.5291 C.ar 0 **** 0
4458 C22 52.0535 78.2619 54.0391 C.ar 0 **** 0
4459 C23 52.035 77.0445 53.4532 C.ar 0 **** 0.042
4460 C24 56.0525 80.1616 55.2924 C.3 0 **** -0.106
4461 C25 57.5003 80.7168 55.4295 C.ar 0 **** 0
4462 C26 58.582 79.884 55.2813 C.ar 0 **** 0
4463 C27 58.4353 78.4349 54.9497 C.3 0 **** -0.106
4464 C28 59.8763 80.369 55.4564 C.ar 0 **** 0.042
4465 C29 60.127 81.6871 55.7969 C.ar 0 **** 0
4466 C30 59.0235 82.5154 55.9308 C.ar 0 **** 0
4467 C31 57.7221 82.0522 55.7553 C.ar 0 **** 0
4468 C32 59.1741 84.0005 56.2982 C.ar 0 **** 0
4469 C33 60.625 84.4536 56.4897 C.3 0 **** -0.106
4470 C34 61.5262 83.3364 57.0111 C.3 0 **** -0.106
4471 C35 61.5327 82.2051 55.9855 C.3 0 **** -0.106
4472 C36 56.5887 83.0433 55.9259 C.ar 0 **** -0.1268
4473 C37 56.8543 84.3348 56.2553 C.ar 0 **** 0.0265
4474 C38 58.0944 84.8091 56.4393 C.ar 0 **** -0.1268
4475 C39 50.7658 78.9785 54.2093 C.3 0 **** -0.106
4476 C40 51.2984 80.1609 54.952 C.ar 0 **** 0
4477 C41 52.6819 80.1216 55.1335 C.ar 0 **** 0
4478 C42 53.2262 81.1943 55.8705 C.ar 0 **** -0.1268
4479 C43 52.429 82.2556 56.3472 C.ar 0 **** 0
4480 C44 51.0368 82.271 56.1261 C.ar 0 **** 0
4481 C45 50.4728 81.1943 55.4225 C.ar 0 **** 0
4482 C46 49.0786 81.1828 55.208 C.ar 0 **** -0.1268
4483 C47 48.2533 82.2027 55.6528 C.ar 0 **** 0
4484 C48 48.8196 83.2398 56.3631 C.ar 0 **** -0.1268
4485 C49 50.199 83.3056 56.6103 C.ar 0 **** 0
4486 C50 50.7819 84.3661 57.326 C.ar 0 **** 0.042
4487 C51 52.1434 84.3841 57.5515 C.ar 0 **** -0.1268
4488 C52 52.9538 83.3526 57.0845 C.ar 0 **** -0.1268
4489 O53 52.188 69.8638 50.0586 O.3 0 **** -0.452
4490 C54 55.0188 69.7536 50.3696 C.3 0 **** -0.159
4491 O55 50.8685 76.523 53.0359 O.3 0 **** -0.452
4492 C56 46.7763 82.0467 55.3691 C.3 0 **** -0.106
4493 C57 45.9336 83.2579 55.771 C.3 0 **** -0.159
4494 O58 55.8163 85.1741 56.4048 O.3 0 **** -0.4365
4495 O59 60.9759 79.568 55.3089 O.3 0 **** -0.452
4496 O60 50.0931 85.4068 57.8335 O.3 0 **** -0.452
4497 H61 50.9543 72.0697 50.9523 H 0 **** 0.1268
4498 H62 55.8932 71.9584 51.5181 H 0 **** 0.1268
4499 H63 51.28 74.1043 52.976 H 0 **** 0.053
4500 H64 51.5028 74.8713 51.3587 H 0 **** 0.053
4501 H65 56.6987 73.0331 52.8131 H 0 **** 0.053
4502 H66 57.3451 74.3494 51.8026 H 0 **** 0.053
4503 H67 57.4417 74.1422 54.8889 H 0 **** 0.053
4504 H68 58.8062 73.8105 53.7722 H 0 **** 0.053
4505 H69 58.9344 76.1238 54.5805 H 0 **** 0.053
4506 H70 58.6357 76.1115 52.8388 H 0 **** 0.053
4507 H71 55.487 80.8601 54.6404 H 0 **** 0.053
4508 H72 59.0907 78.2165 54.1006 H 0 **** 0.053
4509 H73 61.0142 84.8161 55.5164 H 0 **** 0.053
4510 H74 60.6168 85.3159 57.1708 H 0 **** 0.053
4511 H75 62.5436 83.7169 57.1647 H 0 **** 0.053
4512 H76 61.1659 82.9761 57.9853 H 0 **** 0.053
4513 H77 61.9134 82.5702 55.022 H 0 **** 0.053
4514 H78 62.1886 81.4046 56.3091 H 0 **** 0.053
4515 H79 55.5881 82.691 55.764 H 0 **** 0.1268
4516 H80 58.277 85.8416 56.6928 H 0 **** 0.1268
4517 H81 50.3091 79.2845 53.2547 H 0 **** 0.053
4518 H82 50.0357 78.4262 54.8226 H 0 **** 0.053
4519 H83 54.2643 81.2905 56.1511 H 0 **** 0.1268
4520 H84 48.6166 80.3381 54.6629 H 0 **** 0.1268
4521 H85 48.1637 84.0242 56.7329 H 0 **** 0.1268
4522 H86 52.6215 85.2039 58.1105 H 0 **** 0.1268
4523 H87 54.0574 83.3597 57.306 H 0 **** 0.1268
4524 H88 51.2571 70.0371 50.0228 H 0 **** 0.41
4525 H89 54.4605 68.8156 50.4718 H 0 **** 0.053
4526 H90 55.9437 69.6401 50.9522 H 0 **** 0.053
4527 H91 55.288 69.8724 49.3078 H 0 **** 0.053
4528 H92 50.1535 77.1176 53.2163 H 0 **** 0.41
4529 H93 46.6061 81.826 54.3149 H 0 **** 0.053
4530 H94 44.8603 83.1077 55.5402 H 0 **** 0.053
4531 H95 46.2538 84.1668 55.2256 H 0 **** 0.053
4532 H96 45.9986 83.4686 56.8554 H 0 **** 0.053
4533 H97 55.005 84.7612 56.1558 H 0 **** 0.41
4534 H98 60.7119 78.6887 55.0912 H 0 **** 0.41
4535 H99 49.1728 85.3106 57.6232 H 0 **** 0.41
4536 H100 55.647 80.116 56.3237 H 0 **** 0.053
4537 H101 58.7463 77.8317 55.8106 H 0 **** 0.053
4538 H102 46.471 81.1745 55.9461 H 0 **** 0.053
4539 C1 67.5694 44.5081 23.9118 C.ar 0 **** 0.042
4540 C2 68.0919 43.4187 23.2399 C.ar 0 **** -0.1268
4541 C3 69.445 43.1299 23.3057 C.ar 0 **** 0
4542 C4 70.3147 43.9292 24.049 C.ar 0 **** 0
4543 C5 69.7741 45.0205 24.7357 C.ar 0 **** -0.1268
4544 C6 68.4229 45.3253 24.6659 C.ar 0 **** 0
4545 C7 71.6476 43.3637 23.9067 C.ar 0 **** 0
4546 C8 71.5452 42.2424 23.1021 C.ar 0 **** 0
4547 C9 70.1512 41.9875 22.6412 C.3 0 **** -0.106
4548 C10 72.6769 41.4887 22.8109 C.ar 0 **** 0
4549 C11 73.9373 41.8529 23.3293 C.ar 0 **** 0
4550 C12 73.9834 43.0185 24.1424 C.ar 0 **** 0
4551 C13 72.847 43.7846 24.4246 C.ar 0 **** 0
4552 C14 72.9501 45.0074 25.2924 C.3 0 **** -0.106
4553 C15 74.3114 45.6828 25.1248 C.3 0 **** -0.106
4554 C16 75.3652 44.6967 25.5495 C.3 0 **** -0.106
4555 C17 75.339 43.4377 24.7087 C.ar 0 **** 0
4556 C18 76.4721 42.7207 24.4949 C.ar 0 **** 0
4557 C19 76.4425 41.5808 23.7418 C.ar 0 **** 0
4558 C20 75.1157 41.0774 23.0483 C.ar 0 **** 0
4559 C21 74.9546 39.9453 22.1529 C.ar 0 **** 0
4560 C22 73.661 39.6433 21.7143 C.ar 0 **** 0
4561 C23 72.5578 40.3665 22.0073 C.ar 0 **** 0.042
4562 C24 77.7223 40.7791 23.5546 C.3 0 **** -0.106
4563 C25 78.9328 41.1829 24.4462 C.ar 0 **** 0
4564 C26 78.9113 42.3561 25.1594 C.ar 0 **** 0
4565 C27 77.7338 43.2752 25.1505 C.3 0 **** -0.106
4566 C28 80.0157 42.7439 25.9152 C.ar 0 **** 0.042
4567 C29 81.1718 41.9845 25.9695 C.ar 0 **** 0
4568 C30 81.1706 40.798 25.2525 C.ar 0 **** 0
4569 C31 80.076 40.3897 24.4949 C.ar 0 **** 0
4570 C32 82.3929 39.8657 25.241 C.ar 0 **** 0
4571 C33 83.571 40.3681 26.0816 C.3 0 **** -0.106
4572 C34 83.6446 41.8924 26.1395 C.3 0 **** -0.106
4573 C35 82.3648 42.4116 26.7907 C.3 0 **** -0.106
4574 C36 80.1817 39.0747 23.7495 C.ar 0 **** -0.1268
4575 C37 81.323 38.34 23.8186 C.ar 0 **** 0.0265
4576 C38 82.3962 38.7098 24.5316 C.ar 0 **** -0.1268
4577 C39 73.5093 38.4549 20.8391 C.3 0 **** -0.106
4578 C40 74.9549 38.087 20.7551 C.ar 0 **** 0
4579 C41 75.7811 38.9294 21.5017 C.ar 0 **** 0
4580 C42 77.1618 38.6538 21.4167 C.ar 0 **** -0.1268
4581 C43 77.6614 37.5704 20.6643 C.ar 0 **** 0
4582 C44 76.792 36.7283 19.9387 C.ar 0 **** 0
4583 C45 75.4169 37.0079 19.9847 C.ar 0 **** 0
4584 C46 74.533 36.1976 19.2391 C.ar 0 **** -0.1268
4585 C47 74.9693 35.1324 18.4663 C.ar 0 **** 0
4586 C48 76.3278 34.8766 18.4315 C.ar 0 **** -0.1268
4587 C49 77.2569 35.6484 19.1493 C.ar 0 **** 0
4588 C50 78.6398 35.3965 19.1059 C.ar 0 **** 0.042
4589 C51 79.5162 36.1968 19.8119 C.ar 0 **** -0.1268
4590 C52 79.0476 37.2668 20.5694 C.ar 0 **** -0.1268
4591 O53 66.227 44.7972 23.851 O.3 0 **** -0.452
4592 C54 67.8634 46.5177 25.4265 C.3 0 **** -0.159
4593 O55 71.3645 39.9912 21.5149 O.3 0 **** -0.452
4594 C56 73.9017 34.351 17.7082 C.3 0 **** -0.106
4595 C57 74.4528 33.0931 17.0283 C.3 0 **** -0.159
4596 O58 81.3731 37.1858 23.1335 O.3 0 **** -0.4365
4597 O59 80.0244 43.9028 26.6429 O.3 0 **** -0.452
4598 O60 79.209 34.4016 18.3974 O.3 0 **** -0.452
4599 H61 67.4457 42.7429 22.6337 H 0 **** 0.1268
4600 H62 70.3659 45.6924 25.3721 H 0 **** 0.1268
4601 H63 70.0302 42.0527 21.5447 H 0 **** 0.053
4602 H64 69.7352 41.0279 22.9994 H 0 **** 0.053
4603 H65 72.1995 45.7484 25.0329 H 0 **** 0.053
4604 H66 72.818 44.7398 26.364 H 0 **** 0.053
4605 H67 74.4553 46.0126 24.067 H 0 **** 0.053
4606 H68 74.3646 46.621 25.7523 H 0 **** 0.053
4607 H69 76.3419 45.1923 25.4872 H 0 **** 0.053
4608 H70 75.2043 44.4411 26.6117 H 0 **** 0.053
4609 H71 77.4941 39.7128 23.7636 H 0 **** 0.053
4610 H72 77.4793 43.5052 26.19 H 0 **** 0.053
4611 H73 83.4694 39.9653 27.11 H 0 **** 0.053
4612 H74 84.4888 39.9359 25.6593 H 0 **** 0.053
4613 H75 84.5211 42.203 26.7215 H 0 **** 0.053
4614 H76 83.7638 42.3092 25.1292 H 0 **** 0.053
4615 H77 82.2656 42.0056 27.8065 H 0 **** 0.053
4616 H78 82.3953 43.492 26.8766 H 0 **** 0.053
4617 H79 79.3277 38.7484 23.1874 H 0 **** 0.1268
4618 H80 83.2869 38.1028 24.5751 H 0 **** 0.1268
4619 H81 72.9232 37.6453 21.302 H 0 **** 0.053
4620 H82 73.1082 38.6963 19.8417 H 0 **** 0.053
4621 H83 77.9415 39.2395 21.8813 H 0 **** 0.1268
4622 H84 73.4482 36.4091 19.2648 H 0 **** 0.1268
4623 H85 76.6754 34.0465 17.8218 H 0 **** 0.1268
4624 H86 80.6043 36.0209 19.789 H 0 **** 0.1268
4625 H87 79.7744 37.9361 21.1104 H 0 **** 0.1268
4626 H88 65.8105 44.1461 23.3025 H 0 **** 0.41
4627 H89 67.0263 46.9709 24.8827 H 0 **** 0.053
4628 H90 68.6168 47.305 25.568 H 0 **** 0.053
4629 H91 67.4939 46.2065 26.4167 H 0 **** 0.053
4630 H92 71.4552 39.2137 20.9817 H 0 **** 0.41
4631 H93 73.1048 34.0533 18.3974 H 0 **** 0.053
4632 H94 73.6535 32.5423 16.4942 H 0 **** 0.053
4633 H95 74.8978 32.3931 17.7609 H 0 **** 0.053
4634 H96 75.2259 33.3395 16.2767 H 0 **** 0.053
4635 H97 80.5351 36.9784 22.7516 H 0 **** 0.41
4636 H98 79.2053 44.3591 26.5378 H 0 **** 0.41
4637 H99 78.534 33.9098 17.9473 H 0 **** 0.41
4638 H100 78.0471 40.9491 22.5079 H 0 **** 0.053
4639 H101 78.0006 44.2025 24.6303 H 0 **** 0.053
4640 H102 73.4486 34.9943 16.9453 H 0 **** 0.053
4641 C 13.8768 30.2405 80.0668 C.3 0 **** 0.054
4642 C 14.8343 29.5763 79.0357 C.3 0 **** -0.106
4643 C 16.3068 30.0092 79.2795 C.3 0 **** -0.053
4644 C 16.3196 31.5127 79.647 C.3 0 **** -0.053
4645 C 15.4352 31.7628 80.9055 C.3 0 **** 0.054
4646 O 14.5889 30.6654 81.2172 O.3 0 **** -0.32
4647 C 15.8559 32.3832 78.442 C.3 0 **** -0.053
4648 C 16.3556 31.8184 77.0577 C.3 0 **** 0.107
4649 C 17.576 30.9274 77.2548 C.3 0 **** -0.106
4650 C 17.249 29.6814 78.0944 C.3 0 **** -0.106
4651 O 16.7194 32.8263 76.108 O.3 0 **** -0.32
4652 C 15.779 33.889 76.1211 C.3 0 **** 0.107
4653 C 16.0623 34.7375 77.3895 C.3 0 **** -0.053
4654 C 16.3039 33.8459 78.6346 C.3 0 **** -0.106
4655 C 15.0431 35.8077 77.6865 C.2 0 **** 0
4656 C 13.6046 35.4737 77.3175 C.3 0 **** 0
4657 C 13.4216 34.6201 76.0632 C.3 0 **** 0
4658 C 14.3415 33.4137 75.921 C.3 0 **** -0.053
4659 C 11.979 34.2915 75.7336 C.3 0 **** 0
4660 C 11.1402 35.5623 75.6526 C.3 0 **** 0
4661 C 11.2988 36.3549 77.0039 C.3 0 **** 0.16
4662 C 12.7367 36.7157 77.3054 C.3 0 **** 0
4663 C 12.8981 37.6398 78.5433 C.3 0 **** -0.106
4664 C 14.3307 38.1422 78.4464 C.3 0 **** -0.106
4665 C 15.3376 37.0226 78.2072 C.2 0 **** -0.1268
4666 O 10.3751 37.4184 77.3251 O.3 0 **** -0.32
4667 C 9.44418 37.6531 76.2906 C.3 0 **** 0.16
4668 C 8.72712 36.393 75.7016 C.3 0 **** 0
4669 C 9.65825 35.1984 75.3731 C.3 0 **** 0
4670 C 14.0873 32.7534 74.5909 C.2 0 **** 0
4671 C 12.7188 32.1362 74.5244 C.3 0 **** -0.053
4672 C 11.7848 33.3802 74.5092 C.3 0 **** 0
4673 C 12.384 31.3057 73.3053 C.2 0 **** 0
4674 C 13.1704 31.4425 72.2056 C.2 0 **** 0
4675 C 14.4615 32.2476 72.1849 C.3 0 **** -0.106
4676 C 14.8858 32.8112 73.5311 C.2 0 **** -0.1268
4677 C 12.9145 30.6224 70.9624 C.3 0 **** -0.106
4678 C 11.4158 30.4179 70.7948 C.3 0 **** -0.106
4679 C 10.8225 29.9707 72.1195 C.2 0 **** 0
4680 C 11.3379 30.4188 73.3098 C.2 0 **** 0
4681 C 10.6811 29.9964 74.6104 C.3 0 **** -0.106
4682 C 9.76856 28.7863 74.4726 C.3 0 **** -0.053
4683 C 8.7931 29.0125 73.3049 C.3 0 **** -0.106
4684 C 9.5788 29.1169 71.9932 C.3 0 **** -0.106
4685 C 9.54788 34.4376 74.0455 C.3 0 **** 0.147
4686 C 10.2913 33.1164 74.1759 C.3 0 **** -0.053
4687 C 7.66995 36.6944 74.6335 C.3 0 **** 0
4688 C 6.96971 35.4831 74.0046 C.3 0 **** 0.147
4689 S 7.87823 34.0674 73.4322 S.3 0 **** -0.294
4690 C 5.85165 35.817 73.0557 C.3 0 **** -0.053
4691 C 4.85872 36.7454 73.7678 C.3 0 **** 0
4692 C 5.55897 38.0477 74.3155 C.3 0 **** 0
4693 C 6.6659 37.6632 75.3186 C.3 0 **** 0
4694 C 4.51192 38.9164 74.9971 C.3 0 **** 0
4695 C 3.43308 39.2844 73.9984 C.3 0 **** 0
4696 C 2.7126 38.0251 73.357 C.3 0 **** 0
4697 C 3.79388 37.1037 72.6829 C.3 0 **** -0.053
4698 C 1.73418 38.5561 72.2722 C.3 0 **** 0
4699 C 0.6284 39.2899 72.9989 C.3 0 **** 0.16
4700 C 1.14595 40.427 73.885 C.3 0 **** 0
4701 C 2.52784 40.3882 74.4707 C.3 0 **** 0
4702 C 7.33603 38.8727 76.0234 C.3 0 **** 0
4703 C 8.41492 38.473 77.0253 C.3 0 **** -0.053
4704 C 5.01473 40.0373 75.9335 C.3 0 **** 0
4705 C 6.50003 40.1551 76.2836 C.3 0 **** 0
4706 C 2.81935 41.1904 75.7391 C.3 0 **** 0
4707 C 4.33698 41.4094 75.8838 C.3 0 **** 0
4708 C 0.284844 41.6633 74.1462 C.3 0 **** 0
4709 C 0.683607 42.3885 75.4707 C.3 0 **** 0
4710 C 2.19744 42.6078 75.6478 C.3 0 **** 0
4711 O -0.362426 39.6426 72.0582 O.3 0 **** -0.32
4712 C -1.17699 38.4716 72.0205 C.3 0 **** 0.107
4713 C -0.303749 37.2122 71.7146 C.3 0 **** -0.053
4714 C 1.07648 37.6354 71.2162 C.3 0 **** 0.107
4715 C -1.00108 36.306 70.6894 C.3 0 **** -0.106
4716 C -2.51225 36.2488 70.979 C.3 0 **** -0.106
4717 C -3.17207 37.6039 70.662 C.3 0 **** 0.134
4718 C -2.22423 38.7928 70.9751 C.3 0 **** -0.053
4719 C -3.00016 40.0703 71.381 C.3 0 **** -0.106
4720 C -4.30289 40.1543 70.5961 C.3 0 **** -0.106
4721 C -5.19653 38.9077 70.8764 C.3 0 **** 0.081
4722 N -4.45548 37.7295 71.3231 N.3 0 **** -0.727
4723 C 6.74748 40.9819 77.5739 C.3 0 **** 0.16
4724 C 6.11501 42.3547 77.407 C.3 0 **** 0.16
4725 C 4.63238 42.1717 77.2538 C.3 0 **** 0
4726 O 6.3817 43.2604 78.4564 O.3 0 **** -0.32
4727 C 7.77851 43.281 78.7299 C.3 0 **** 0.107
4728 C 8.22506 41.9011 79.104 C.3 0 **** 0.107
4729 O 8.11307 41.0949 77.9432 O.3 0 **** -0.32
4730 C 7.40981 41.3191 80.2878 C.3 0 **** -0.106
4731 C 6.86852 42.4382 81.2233 C.3 0 **** -0.106
4732 C 7.83991 43.6354 81.2347 C.3 0 **** -0.106
4733 C 7.97515 44.2915 79.8315 C.3 0 **** -0.106
4734 C 2.47023 43.4261 76.9876 C.3 0 **** 0
4735 C 4.01299 43.6044 77.1564 C.3 0 **** -0.053
4736 C 0.0241619 43.7775 75.4821 C.3 0 **** 0
4737 C 0.383022 44.5889 76.7433 C.3 0 **** 0.16
4738 C 1.82966 44.8018 76.9584 C.3 0 **** -0.053
4739 C -1.53059 43.5144 75.3926 C.3 0 **** 0
4740 C -1.884 42.7306 74.063 C.3 0 **** 0
4741 C -1.23484 41.3433 74.1855 C.3 0 **** -0.053
4742 O -0.254161 45.8169 76.8756 O.3 0 **** -0.32
4743 C -1.64111 45.6557 76.6004 C.3 0 **** 0.16
4744 C -2.05882 44.9383 75.2483 C.3 0 **** 0
4745 C -3.40229 42.5826 73.7651 C.3 0 **** -0.053
4746 C -4.07945 43.944 73.9086 C.3 0 **** -0.053
4747 C -3.58171 44.7919 75.1388 C.3 0 **** 0
4748 C -5.53202 43.7733 74.1961 C.3 0 **** -0.053
4749 C -6.10842 42.6406 73.3885 C.3 0 **** -0.106
4750 C -5.52231 41.305 73.9299 C.3 0 **** -0.106
4751 C -4.14445 41.5109 74.5923 C.3 0 **** -0.106
4752 C -4.15665 46.1862 75.057 C.3 0 **** 0
4753 C -3.68897 47.1161 76.2156 C.3 0 **** 0
4754 C -2.2267 47.0401 76.647 C.3 0 **** 0
4755 C -6.10211 45.1406 73.8279 C.3 0 **** 0
4756 C -5.65916 46.1711 74.8825 C.3 0 **** 0
4757 C 9.07789 28.4288 75.8141 C.3 0 **** -0.053
4758 C 7.95961 29.4095 76.1967 C.3 0 **** -0.159
4759 C 8.53848 26.9938 75.7981 C.3 0 **** -0.159
4760 O 1.84343 36.5027 70.831 O.3 0 **** -0.57
4761 C -1.52939 48.1922 77.4242 C.3 0 **** -0.053
4762 C -2.46009 49.2644 77.9995 C.3 0 **** -0.053
4763 C -3.55598 49.6205 76.9788 C.3 0 **** 0
4764 C -4.42571 48.4035 76.5355 C.3 0 **** 0
4765 C -5.66451 48.603 75.6801 C.3 0 **** 0
4766 C -6.30471 49.9595 75.7194 C.3 0 **** 0
4767 C -5.69049 51.0098 76.6786 C.3 0 **** 0
4768 C -4.46603 50.7005 77.5731 C.3 0 **** -0.053
4769 C -6.43807 52.3157 76.9103 C.3 0 **** -0.053
4770 C -7.87082 52.446 76.3486 C.3 0 **** -0.053
4771 C -8.30222 51.4659 75.2141 C.3 0 **** 0
4772 C -7.82547 50.0059 75.4319 C.3 0 **** 0
4773 C -8.19004 49.0769 74.2088 C.3 0 **** 0
4774 C -7.68885 47.6064 74.4707 C.3 0 **** 0
4775 C -6.15645 47.5854 74.6447 C.3 0 **** 0
4776 C -9.73742 49.1034 73.9971 C.3 0 **** 0
4777 C -10.1839 50.5929 73.7517 C.3 0 **** -0.053
4778 C -9.81571 51.5075 74.936 C.3 0 **** -0.053
4779 C -7.63384 45.1716 73.6475 C.3 0 **** -0.053
4780 C -8.01142 46.6675 73.2396 C.3 0 **** 0
4781 C -10.1207 48.1936 72.7428 C.3 0 **** 0.02
4782 C -9.54712 46.7399 72.8867 C.3 0 **** 0
4783 C -9.91404 45.6898 71.8114 C.3 0 **** -0.106
4784 C -10.837 46.3066 70.7986 C.3 0 **** -0.106
4785 C -11.9889 47.016 71.5014 C.3 0 **** -0.086
4786 C -11.6158 48.0923 72.4532 C.2 0 **** 0.379
4787 O -12.4666 48.857 72.8745 O.2 0 **** -0.419
4788 H 13.1155 29.5278 80.4119 H 0 **** 0.053
4789 H 13.3314 31.0794 79.6072 H 0 **** 0.053
4790 H 14.7764 28.4708 79.0767 H 0 **** 0.053
4791 H 14.5233 29.8409 78.008 H 0 **** 0.053
4792 H 16.6518 29.4565 80.1683 H 0 **** 0.053
4793 H 17.365 31.8018 79.8614 H 0 **** 0.053
4794 H 14.8406 32.6866 80.7972 H 0 **** 0.053
4795 H 16.0688 31.9059 81.7878 H 0 **** 0.053
4796 H 14.7524 32.3737 78.4646 H 0 **** 0.053
4797 H 15.5653 31.1841 76.6157 H 0 **** 0.053
4798 H 18.3589 31.5366 77.7449 H 0 **** 0.053
4799 H 17.9741 30.6497 76.2659 H 0 **** 0.053
4800 H 18.1836 29.2377 78.464 H 0 **** 0.053
4801 H 16.781 28.9259 77.4475 H 0 **** 0.053
4802 H 16.0377 34.5327 75.2779 H 0 **** 0.053
4803 H 16.9995 35.2729 77.2003 H 0 **** 0.053
4804 H 15.8527 34.2595 79.5631 H 0 **** 0.053
4805 H 17.3936 33.8232 78.812 H 0 **** 0.053
4806 H 14.0435 32.6822 76.6875 H 0 **** 0.053
4807 H 12.1745 38.477 78.488 H 0 **** 0.053
4808 H 12.6914 37.0917 79.486 H 0 **** 0.053
4809 H 14.6 38.7222 79.3324 H 0 **** 0.053
4810 H 14.3879 38.8231 77.577 H 0 **** 0.053
4811 H 16.3526 37.2669 78.5047 H 0 **** 0.1268
4812 H 12.5373 31.555 75.4607 H 0 **** 0.053
4813 H 14.3817 33.091 71.4358 H 0 **** 0.053
4814 H 15.2945 31.5851 71.814 H 0 **** 0.053
4815 H 15.8608 33.2883 73.5667 H 0 **** 0.1268
4816 H 13.3637 31.0941 70.0616 H 0 **** 0.053
4817 H 13.4169 29.6481 71.0993 H 0 **** 0.053
4818 H 11.1993 29.6901 69.9879 H 0 **** 0.053
4819 H 10.9381 31.3714 70.4982 H 0 **** 0.053
4820 H 11.4701 29.7487 75.336 H 0 **** 0.053
4821 H 10.1113 30.8363 75.0531 H 0 **** 0.053
4822 H 10.4136 27.924 74.2053 H 0 **** 0.053
4823 H 8.23214 29.9456 73.4737 H 0 **** 0.053
4824 H 8.05098 28.2049 73.2303 H 0 **** 0.053
4825 H 8.91673 29.5069 71.1852 H 0 **** 0.053
4826 H 9.89068 28.0965 71.6753 H 0 **** 0.053
4827 H 10.1479 32.5144 73.2136 H 0 **** 0.053
4828 H 5.32948 34.9329 72.5804 H 0 **** 0.053
4829 H 3.30639 36.117 72.3996 H 0 **** 0.053
4830 H 8.95511 39.3418 77.5038 H 0 **** 0.053
4831 H -1.66958 38.3589 73.001 H 0 **** 0.053
4832 H -0.190996 36.61 72.6397 H 0 **** 0.053
4833 H 0.941409 38.2781 70.3574 H 0 **** 0.053
4834 H -0.837489 36.7091 69.6662 H 0 **** 0.053
4835 H -0.539219 35.2921 70.7012 H 0 **** 0.053
4836 H -2.63338 36.0068 72.0479 H 0 **** 0.053
4837 H -3.00678 35.444 70.4127 H 0 **** 0.053
4838 H -3.36098 37.6231 69.5764 H 0 **** 0.053
4839 H -1.64663 39.0241 70.0565 H 0 **** 0.053
4840 H -3.25968 39.9874 72.4467 H 0 **** 0.053
4841 H -2.36972 40.9684 71.2567 H 0 **** 0.053
4842 H -4.04137 40.2112 69.5238 H 0 **** 0.053
4843 H -4.84928 41.0859 70.8225 H 0 **** 0.053
4844 H -5.749 38.6411 69.9612 H 0 **** 0.053
4845 H -5.96689 39.1522 71.6284 H 0 **** 0.053
4846 H -4.30783 37.7673 72.312 H 0 **** 0.353
4847 H 8.28874 43.573 77.8123 H 0 **** 0.053
4848 H 9.27311 41.9234 79.3912 H 0 **** 0.053
4849 H 6.54647 40.7134 79.9397 H 0 **** 0.053
4850 H 8.0222 40.6072 80.8805 H 0 **** 0.053
4851 H 6.70216 42.0489 82.2482 H 0 **** 0.053
4852 H 5.87586 42.777 80.8643 H 0 **** 0.053
4853 H 8.83 43.2576 81.5437 H 0 **** 0.053
4854 H 7.53248 44.3878 81.9836 H 0 **** 0.053
4855 H 8.9355 44.8339 79.7519 H 0 **** 0.053
4856 H 7.17229 45.0545 79.71 H 0 **** 0.053
4857 H 4.20278 44.1943 78.1182 H 0 **** 0.053
4858 H 2.09243 45.3833 77.8665 H 0 **** 0.053
4859 H -1.55544 40.7484 73.2841 H 0 **** 0.053
4860 H -3.43687 42.277 72.7283 H 0 **** 0.053
4861 H -3.90164 44.516 72.9769 H 0 **** 0.053
4862 H -5.72567 43.5715 75.2711 H 0 **** 0.053
4863 H -5.82859 42.7873 72.3281 H 0 **** 0.053
4864 H -7.21812 42.5807 73.42 H 0 **** 0.053
4865 H -5.41911 40.5785 73.0991 H 0 **** 0.053
4866 H -6.23179 40.8496 74.6472 H 0 **** 0.053
4867 H -3.59862 40.5512 74.6391 H 0 **** 0.053
4868 H -4.2539 41.861 75.6269 H 0 **** 0.053
4869 H 9.85212 28.4764 76.6034 H 0 **** 0.053
4870 H 7.57523 29.1911 77.2058 H 0 **** 0.053
4871 H 7.11475 29.3338 75.4927 H 0 **** 0.053
4872 H 8.30195 30.4568 76.1935 H 0 **** 0.053
4873 H 9.33932 26.2689 75.5817 H 0 **** 0.053
4874 H 7.7597 26.8739 75.0287 H 0 **** 0.053
4875 H 8.09724 26.7247 76.7702 H 0 **** 0.053
4876 H 2.68317 36.8494 70.5354 H 0 **** 0.41
4877 H -0.623418 47.9084 78.0303 H 0 **** 0.053
4878 H -1.88479 50.166 78.3492 H 0 **** 0.053
4879 H -3.9237 51.6259 77.9099 H 0 **** 0.053
4880 H -5.97505 53.118 77.5391 H 0 **** 0.053
4881 H -8.3108 53.4743 76.3384 H 0 **** 0.053
4882 H -11.2817 50.6854 73.5339 H 0 **** 0.053
4883 H -10.1773 52.5547 74.8141 H 0 **** 0.053
4884 H -7.97098 44.4413 72.826 H 0 **** 0.053
4885 H -9.01267 45.2731 71.3286 H 0 **** 0.053
4886 H -10.3894 44.8922 72.3801 H 0 **** 0.053
4887 H -11.2225 45.5392 70.1296 H 0 **** 0.053
4888 H -10.2647 47.0223 70.1741 H 0 **** 0.053
4889 H -12.5561 46.3211 72.1259 H 0 **** 0.053
4890 H -12.673 47.5513 70.8467 H 0 **** 0.053
4891 C 96.8522 68.2 43.3047 C.3 0 **** 0.054
4892 C 97.1826 68.4315 44.8074 C.3 0 **** -0.106
4893 C 97.9133 67.2023 45.4155 C.3 0 **** -0.053
4894 C 97.2638 65.9172 44.8479 C.3 0 **** -0.053
4895 C 97.3476 65.9187 43.2918 C.3 0 **** 0.054
4896 O 97.6816 67.1903 42.754 O.3 0 **** -0.32
4897 C 95.7932 65.7738 45.3399 C.3 0 **** -0.053
4898 C 95.5991 66.2677 46.8243 C.3 0 **** 0.107
4899 C 96.9261 66.2401 47.5729 C.3 0 **** -0.106
4900 C 97.9503 67.2123 46.9641 C.3 0 **** -0.106
4901 O 94.6693 65.4898 47.5863 O.3 0 **** -0.32
4902 C 93.5252 65.1737 46.8087 C.3 0 **** 0.107
4903 C 93.9341 64.0417 45.8288 C.3 0 **** -0.053
4904 C 95.3134 64.3174 45.1765 C.3 0 **** -0.106
4905 C 92.9057 63.6968 44.7823 C.2 0 **** 0
4906 C 92.0641 64.8584 44.2724 C.3 0 **** 0
4907 C 91.7238 65.935 45.3022 C.3 0 **** 0
4908 C 92.8644 66.4065 46.1956 C.3 0 **** -0.053
4909 C 90.8997 67.0852 44.7583 C.3 0 **** 0
4910 C 89.638 66.5698 44.0745 C.3 0 **** 0
4911 C 90.0565 65.5328 42.9659 C.3 0 **** 0.16
4912 C 90.8426 64.3663 43.5229 C.3 0 **** 0
4913 C 91.1205 63.2502 42.4791 C.3 0 **** -0.106
4914 C 91.5898 62.069 43.3153 C.3 0 **** -0.106
4915 C 92.6729 62.4454 44.32 C.2 0 **** -0.1268
4916 O 89.1005 65.1342 41.9586 O.3 0 **** -0.32
4917 C 87.8311 65.7173 42.1606 C.3 0 **** 0.16
4918 C 87.8091 67.2583 42.4323 C.3 0 **** 0
4919 C 88.8408 67.7582 43.4751 C.3 0 **** 0
4920 C 92.3273 67.3876 47.205 C.2 0 **** 0
4921 C 91.8658 68.6624 46.5566 C.3 0 **** -0.053
4922 C 90.6037 68.2063 45.7698 C.3 0 **** 0
4923 C 91.4459 69.7973 47.4643 C.2 0 **** 0
4924 C 91.1747 69.5069 48.7638 C.2 0 **** 0
4925 C 91.4326 68.1476 49.3974 C.3 0 **** -0.106
4926 C 92.1319 67.1435 48.4959 C.2 0 **** -0.1268
4927 C 90.7798 70.5949 49.7354 C.3 0 **** -0.106
4928 C 89.946 71.6398 49.0082 C.3 0 **** -0.106
4929 C 90.6382 72.0141 47.7092 C.2 0 **** 0
4930 C 91.3657 71.0873 47.0057 C.2 0 **** 0
4931 C 91.9933 71.4835 45.6826 C.3 0 **** -0.106
4932 C 92.0936 72.9881 45.4768 C.3 0 **** -0.053
4933 C 90.7263 73.6343 45.7575 C.3 0 **** -0.106
4934 C 90.3499 73.4201 47.2277 C.3 0 **** -0.106
4935 C 88.4455 68.7374 44.5879 C.3 0 **** 0.147
4936 C 89.7107 69.3346 45.186 C.3 0 **** -0.053
4937 C 86.4096 67.8676 42.5721 C.3 0 **** 0
4938 C 86.3458 69.3699 42.8751 C.3 0 **** 0.147
4939 S 87.3499 70.115 44.1375 S.3 0 **** -0.294
4940 C 84.962 69.9589 42.8802 C.3 0 **** -0.053
4941 C 84.2726 69.6138 41.5533 C.3 0 **** 0
4942 C 84.2365 68.0586 41.2954 C.3 0 **** 0
4943 C 85.6747 67.5028 41.2519 C.3 0 **** 0
4944 C 83.5331 67.7984 39.9713 C.3 0 **** 0
4945 C 82.123 68.3504 40.0315 C.3 0 **** 0
4946 C 82.0681 69.9052 40.3418 C.3 0 **** 0
4947 C 82.8259 70.1861 41.6906 C.3 0 **** -0.053
4948 C 80.5706 70.2919 40.4975 C.3 0 **** 0
4949 C 79.9382 70.1609 39.1292 C.3 0 **** 0.16
4950 C 80.0908 68.7593 38.5308 C.3 0 **** 0
4951 C 81.2424 67.8737 38.9098 C.3 0 **** 0
4952 C 85.7667 66.0008 40.8718 C.3 0 **** 0
4953 C 87.1971 65.4731 40.8153 C.3 0 **** -0.053
4954 C 83.7159 66.4059 39.3281 C.3 0 **** 0
4955 C 84.6987 65.394 39.922 C.3 0 **** 0
4956 C 81.6827 66.774 37.9433 C.3 0 **** 0
4957 C 82.5056 65.7123 38.6968 C.3 0 **** 0
4958 C 79.0356 68.2027 37.5742 C.3 0 **** 0
4959 C 79.6143 67.0903 36.6431 C.3 0 **** 0
4960 C 80.4537 66.0229 37.3691 C.3 0 **** 0
4961 O 78.6209 70.6618 39.1998 O.3 0 **** -0.32
4962 C 78.8127 72.0565 38.9673 C.3 0 **** 0.107
4963 C 79.8621 72.6351 39.9705 C.3 0 **** -0.053
4964 C 80.1138 71.6413 41.1025 C.3 0 **** 0.107
4965 C 79.3924 73.988 40.525 C.3 0 **** -0.106
4966 C 78.7323 74.815 39.4064 C.3 0 **** -0.106
4967 C 77.3864 74.1881 38.997 C.3 0 **** 0.134
4968 C 77.4206 72.639 39.0917 C.3 0 **** -0.053
4969 C 76.4744 71.9676 38.0656 C.3 0 **** -0.106
4970 C 75.2257 72.82 37.8802 C.3 0 **** -0.106
4971 C 75.6014 74.2438 37.3675 C.3 0 **** 0.081
4972 N 76.9667 74.6541 37.6906 N.3 0 **** -0.727
4973 C 85.1122 64.2944 38.9074 C.3 0 **** 0.16
4974 C 83.8591 63.6024 38.3943 C.3 0 **** 0.16
4975 C 83.0304 64.618 37.6613 C.3 0 **** 0
4976 O 84.0977 62.4866 37.5633 O.3 0 **** -0.32
4977 C 85.0417 61.6196 38.1825 C.3 0 **** 0.107
4978 C 86.3136 62.3726 38.4247 C.3 0 **** 0.107
4979 O 86.0406 63.349 39.4157 O.3 0 **** -0.32
4980 C 86.8752 63.0119 37.1283 C.3 0 **** -0.106
4981 C 86.4631 62.2087 35.8613 C.3 0 **** -0.106
4982 C 86.3302 60.7112 36.2031 C.3 0 **** -0.106
4983 C 85.21 60.4477 37.2488 C.3 0 **** -0.106
4984 C 80.9155 64.904 36.3327 C.3 0 **** 0
4985 C 81.7904 63.8548 37.0904 C.3 0 **** -0.053
4986 C 78.4403 66.3586 35.972 C.3 0 **** 0
4987 C 78.9094 65.2154 35.0496 C.3 0 **** 0.16
4988 C 79.7363 64.1819 35.707 C.3 0 **** -0.053
4989 C 77.6538 67.463 35.1619 C.3 0 **** 0
4990 C 77.132 68.5975 36.1353 C.3 0 **** 0
4991 C 78.3771 69.3019 36.6958 C.3 0 **** -0.053
4992 O 77.9116 64.57 34.329 O.3 0 **** -0.32
4993 C 77.0538 65.5432 33.7439 C.3 0 **** 0.16
4994 C 76.4437 66.6666 34.6836 C.3 0 **** 0
4995 C 76.1783 69.6395 35.4868 C.3 0 **** -0.053
4996 C 75.087 68.9083 34.7078 C.3 0 **** -0.053
4997 C 75.5962 67.6654 33.8856 C.3 0 **** 0
4998 C 74.5249 69.7928 33.6478 C.3 0 **** -0.053
4999 C 74.382 71.2055 34.1491 C.3 0 **** -0.106
5000 C 75.8052 71.8053 34.3361 C.3 0 **** -0.106
5001 C 76.8576 70.7102 34.606 C.3 0 **** -0.106
5002 C 74.413 66.904 33.3365 C.3 0 **** 0
5003 C 74.8158 65.6299 32.5362 C.3 0 **** 0
5004 C 75.945 64.7652 33.0905 C.3 0 **** 0
5005 C 73.1933 69.1179 33.3295 C.3 0 **** 0
5006 C 73.4632 67.8027 32.5759 C.3 0 **** 0
5007 C 92.6881 73.3422 44.0891 C.3 0 **** -0.053
5008 C 91.7051 73.1041 42.9334 C.3 0 **** -0.159
5009 C 93.2025 74.7861 44.0552 C.3 0 **** -0.159
5010 O 80.9831 72.1981 42.0793 O.3 0 **** -0.57
5011 C 76.1279 63.2763 32.6814 C.3 0 **** -0.053
5012 C 75.3111 62.8146 31.4706 C.3 0 **** -0.053
5013 C 73.8853 63.3908 31.5397 C.3 0 **** 0
5014 C 73.8361 64.9491 31.5986 C.3 0 **** 0
5015 C 72.5159 65.6907 31.484 C.3 0 **** 0
5016 C 71.3879 64.9673 30.8088 C.3 0 **** 0
5017 C 71.6883 63.5625 30.2283 C.3 0 **** 0
5018 C 73.0868 62.9068 30.3249 C.3 0 **** -0.053
5019 C 70.6403 62.894 29.3493 C.3 0 **** -0.053
5020 C 69.421 63.7304 28.9028 C.3 0 **** -0.053
5021 C 69.0818 65.0176 29.7162 C.3 0 **** 0
5022 C 70.3262 65.8542 30.1135 C.3 0 **** 0
5023 C 69.9442 67.0847 31.0255 C.3 0 **** 0
5024 C 71.2343 67.9054 31.405 C.3 0 **** 0
5025 C 72.2218 67.0186 32.1908 C.3 0 **** 0
5026 C 68.9231 67.9846 30.259 C.3 0 **** 0
5027 C 67.6627 67.1142 29.8956 C.3 0 **** -0.053
5028 C 68.0326 65.9022 29.0189 C.3 0 **** -0.053
5029 C 72.1968 69.998 32.5471 C.3 0 **** -0.053
5030 C 70.8773 69.1221 32.3503 C.3 0 **** 0
5031 C 68.5009 69.2177 31.1806 C.3 0 **** 0.02
5032 C 69.754 70.0124 31.6917 C.3 0 **** 0
5033 C 69.5268 71.3052 32.5106 C.3 0 **** -0.106
5034 C 68.0532 71.5758 32.6272 C.3 0 **** -0.106
5035 C 67.3946 71.4956 31.2547 C.3 0 **** -0.086
5036 C 67.5382 70.2078 30.5306 C.2 0 **** 0.379
5037 O 66.8562 69.9815 29.5456 O.2 0 **** -0.419
5038 H 97.0319 69.1112 42.7181 H 0 **** 0.053
5039 H 95.7875 67.9515 43.1742 H 0 **** 0.053
5040 H 97.814 69.3298 44.9541 H 0 **** 0.053
5041 H 96.2535 68.6402 45.3697 H 0 **** 0.053
5042 H 98.9481 67.2354 45.0377 H 0 **** 0.053
5043 H 97.8175 65.0494 45.2513 H 0 **** 0.053
5044 H 96.4104 65.547 42.8423 H 0 **** 0.053
5045 H 98.1401 65.2401 42.9575 H 0 **** 0.053
5046 H 95.1826 66.397 44.6638 H 0 **** 0.053
5047 H 95.2588 67.3195 46.8173 H 0 **** 0.053
5048 H 97.3055 65.2011 47.5432 H 0 **** 0.053
5049 H 96.7385 66.4703 48.6336 H 0 **** 0.053
5050 H 98.9556 66.9502 47.3217 H 0 **** 0.053
5051 H 97.7445 68.2271 47.333 H 0 **** 0.053
5052 H 92.809 64.718 47.4954 H 0 **** 0.053
5053 H 94.0485 63.1352 46.4338 H 0 **** 0.053
5054 H 95.3574 64.0239 44.1048 H 0 **** 0.053
5055 H 96.0516 63.6805 45.6951 H 0 **** 0.053
5056 H 93.5648 66.9721 45.5622 H 0 **** 0.053
5057 H 90.1908 63.0076 41.9274 H 0 **** 0.053
5058 H 91.8693 63.5775 41.7279 H 0 **** 0.053
5059 H 91.9236 61.2484 42.6755 H 0 **** 0.053
5060 H 90.7216 61.7032 43.8942 H 0 **** 0.053
5061 H 93.2841 61.6107 44.6486 H 0 **** 0.1268
5062 H 92.6444 69.0031 45.832 H 0 **** 0.053
5063 H 90.4623 67.7019 49.7698 H 0 **** 0.053
5064 H 92.0757 68.2914 50.3118 H 0 **** 0.053
5065 H 92.433 66.2088 48.9598 H 0 **** 0.1268
5066 H 90.2383 70.1817 50.6139 H 0 **** 0.053
5067 H 91.7106 71.0513 50.1172 H 0 **** 0.053
5068 H 89.7742 72.5292 49.6464 H 0 **** 0.053
5069 H 88.9485 71.2236 48.7692 H 0 **** 0.053
5070 H 93.0094 71.064 45.6382 H 0 **** 0.053
5071 H 91.4397 71.034 44.8355 H 0 **** 0.053
5072 H 92.8054 73.3714 46.2368 H 0 **** 0.053
5073 H 89.9642 73.1709 45.1107 H 0 **** 0.053
5074 H 90.7275 74.7092 45.5269 H 0 **** 0.053
5075 H 89.2759 73.6751 47.3846 H 0 **** 0.053
5076 H 90.9338 74.128 47.8581 H 0 **** 0.053
5077 H 89.4173 70.1199 45.9646 H 0 **** 0.053
5078 H 84.8995 71.0654 43.1073 H 0 **** 0.053
5079 H 82.9544 71.309 41.8092 H 0 **** 0.053
5080 H 87.2806 64.3677 40.5991 H 0 **** 0.053
5081 H 79.1682 72.1908 37.9318 H 0 **** 0.053
5082 H 80.8141 72.8296 39.4345 H 0 **** 0.053
5083 H 79.1643 71.4116 41.5657 H 0 **** 0.053
5084 H 78.6562 73.819 41.3409 H 0 **** 0.053
5085 H 80.2499 74.5284 40.9875 H 0 **** 0.053
5086 H 79.4259 74.8218 38.5494 H 0 **** 0.053
5087 H 78.5867 75.8648 39.7059 H 0 **** 0.053
5088 H 76.6353 74.5363 39.7245 H 0 **** 0.053
5089 H 77.081 72.3483 40.1072 H 0 **** 0.053
5090 H 76.9952 71.927 37.0975 H 0 **** 0.053
5091 H 76.2414 70.931 38.3665 H 0 **** 0.053
5092 H 74.7174 72.8817 38.8596 H 0 **** 0.053
5093 H 74.5063 72.336 37.1976 H 0 **** 0.053
5094 H 74.9078 74.9825 37.8001 H 0 **** 0.053
5095 H 75.4584 74.3055 36.2746 H 0 **** 0.053
5096 H 77.6051 74.3071 37.0028 H 0 **** 0.353
5097 H 84.6292 61.3184 39.1452 H 0 **** 0.053
5098 H 87.0657 61.6972 38.8242 H 0 **** 0.053
5099 H 86.531 64.0599 36.9991 H 0 **** 0.053
5100 H 87.9821 63.0908 37.1711 H 0 **** 0.053
5101 H 87.1906 62.3679 35.0398 H 0 **** 0.053
5102 H 85.4916 62.5839 35.4812 H 0 **** 0.053
5103 H 87.2936 60.3802 36.6282 H 0 **** 0.053
5104 H 86.1552 60.1109 35.2918 H 0 **** 0.053
5105 H 85.3972 59.4966 37.781 H 0 **** 0.053
5106 H 84.2394 60.3239 36.7159 H 0 **** 0.053
5107 H 82.1171 63.053 36.3424 H 0 **** 0.053
5108 H 80.0782 63.3583 35.0461 H 0 **** 0.053
5109 H 78.014 70.167 37.3195 H 0 **** 0.053
5110 H 75.7317 70.1465 36.3314 H 0 **** 0.053
5111 H 74.3145 68.5759 35.4285 H 0 **** 0.053
5112 H 75.1576 69.8071 32.7348 H 0 **** 0.053
5113 H 73.8391 71.183 35.1129 H 0 **** 0.053
5114 H 73.8022 71.87 33.4721 H 0 **** 0.053
5115 H 75.8012 72.5194 35.184 H 0 **** 0.053
5116 H 76.0822 72.3954 33.4415 H 0 **** 0.053
5117 H 77.7521 71.152 35.0811 H 0 **** 0.053
5118 H 77.195 70.2494 33.6684 H 0 **** 0.053
5119 H 93.5618 72.682 43.9295 H 0 **** 0.053
5120 H 92.2001 73.2544 41.9607 H 0 **** 0.053
5121 H 90.8571 73.8062 42.9898 H 0 **** 0.053
5122 H 91.2919 72.0827 42.9389 H 0 **** 0.053
5123 H 93.9531 74.9608 44.8424 H 0 **** 0.053
5124 H 92.3797 75.5015 44.2106 H 0 **** 0.053
5125 H 93.6729 75.0173 43.0871 H 0 **** 0.053
5126 H 81.0893 71.5209 42.7448 H 0 **** 0.41
5127 H 77.162 62.8478 32.8069 H 0 **** 0.053
5128 H 75.3206 61.694 31.3691 H 0 **** 0.053
5129 H 73.0563 61.789 30.2093 H 0 **** 0.053
5130 H 70.806 61.8492 28.9825 H 0 **** 0.053
5131 H 68.5683 63.1655 28.4502 H 0 **** 0.053
5132 H 66.8561 67.7102 29.3904 H 0 **** 0.053
5133 H 67.1488 65.3051 28.6955 H 0 **** 0.053
5134 H 71.9491 70.9605 33.1251 H 0 **** 0.053
5135 H 70.0011 71.2423 33.5058 H 0 **** 0.053
5136 H 70.049 72.0698 31.9376 H 0 **** 0.053
5137 H 67.8884 72.5589 33.0646 H 0 **** 0.053
5138 H 67.6014 70.8349 33.3175 H 0 **** 0.053
5139 H 67.8374 72.2171 30.5635 H 0 **** 0.053
5140 H 66.3131 71.6117 31.2514 H 0 **** 0.053
5141 C 59.9631 25.3194 107.663 C.3 0 **** 0.054
5142 C 58.961 25.2694 108.852 C.3 0 **** -0.106
5143 C 59.0643 23.9192 109.614 C.3 0 **** -0.053
5144 C 59.2529 22.7857 108.578 C.3 0 **** -0.053
5145 C 60.5244 23.0542 107.718 C.3 0 **** 0.054
5146 O 61.0118 24.3824 107.845 O.3 0 **** -0.32
5147 C 57.9845 22.6299 107.688 C.3 0 **** -0.053
5148 C 56.6478 22.8663 108.489 C.3 0 **** 0.107
5149 C 56.8741 22.6447 109.98 C.3 0 **** -0.106
5150 C 57.8712 23.6575 110.567 C.3 0 **** -0.106
5151 O 55.5672 22.0131 108.096 O.3 0 **** -0.32
5152 C 55.5129 21.8933 106.683 C.3 0 **** 0.107
5153 C 56.6547 20.9313 106.259 C.3 0 **** -0.053
5154 C 57.9785 21.2492 107.001 C.3 0 **** -0.106
5155 C 56.8854 20.8244 104.774 C.2 0 **** 0
5156 C 56.6443 22.096 103.972 C.3 0 **** 0
5157 C 55.5114 22.9915 104.472 C.3 0 **** 0
5158 C 55.4557 23.2444 105.974 C.3 0 **** -0.053
5159 C 55.3085 24.2568 103.662 C.3 0 **** 0
5160 C 55.1315 23.9299 102.184 C.3 0 **** 0
5161 C 56.3705 23.0844 101.705 C.3 0 **** 0.16
5162 C 56.54 21.8019 102.489 C.3 0 **** 0
5163 C 57.6499 20.8722 101.927 C.3 0 **** -0.106
5164 C 57.4098 19.5423 102.625 C.3 0 **** -0.106
5165 C 57.2427 19.6856 104.134 C.2 0 **** -0.1268
5166 O 56.6177 22.9111 100.292 O.3 0 **** -0.32
5167 C 55.621 23.5124 99.493 C.3 0 **** 0.16
5168 C 55.2254 24.9817 99.8603 C.3 0 **** 0
5169 C 54.9842 25.241 101.368 C.3 0 **** 0
5170 C 54.2289 24.0592 106.291 C.2 0 **** 0
5171 C 54.3166 25.4482 105.724 C.3 0 **** -0.053
5172 C 54.2128 25.1978 104.192 C.3 0 **** 0
5173 C 53.2246 26.4264 106.097 C.2 0 **** 0
5174 C 52.0715 25.9273 106.614 C.2 0 **** 0
5175 C 51.8801 24.4676 106.999 C.3 0 **** -0.106
5176 C 53.1237 23.6034 106.87 C.2 0 **** -0.1268
5177 C 50.9497 26.8472 107.037 C.3 0 **** -0.106
5178 C 50.8969 28.0419 106.096 C.3 0 **** -0.106
5179 C 52.2977 28.6029 105.924 C.2 0 **** 0
5180 C 53.3949 27.7789 105.946 C.2 0 **** 0
5181 C 54.7727 28.3688 105.712 C.3 0 **** -0.106
5182 C 54.8315 29.8796 105.885 C.3 0 **** -0.053
5183 C 53.7059 30.5322 105.065 C.3 0 **** -0.106
5184 C 52.3462 30.0835 105.612 C.3 0 **** -0.106
5185 C 53.7652 26.0302 101.859 C.3 0 **** 0.147
5186 C 54.0026 26.4523 103.302 C.3 0 **** -0.053
5187 C 54.1966 25.6277 98.9253 C.3 0 **** 0
5188 C 53.7628 27.057 99.2697 C.3 0 **** 0.147
5189 S 53.2885 27.5106 100.92 S.3 0 **** -0.294
5190 C 52.8422 27.6935 98.2686 C.3 0 **** -0.053
5191 C 53.4976 27.6205 96.8833 C.3 0 **** 0
5192 C 53.8483 26.1379 96.4749 C.3 0 **** 0
5193 C 54.8219 25.5299 97.5055 C.3 0 **** 0
5194 C 54.4874 26.148 95.0932 C.3 0 **** 0
5195 C 53.5176 26.747 94.0937 C.3 0 **** 0
5196 C 53.0725 28.226 94.4597 C.3 0 **** 0
5197 C 52.4454 28.23 95.9027 C.3 0 **** -0.053
5198 C 51.993 28.6504 93.4238 C.3 0 **** 0
5199 C 52.695 28.7915 92.0906 C.3 0 **** 0.16
5200 C 53.4063 27.5077 91.6526 C.3 0 **** 0
5201 C 53.9144 26.5184 92.6614 C.3 0 **** 0
5202 C 55.3411 24.1148 97.135 C.3 0 **** 0
5203 C 56.3154 23.5362 98.1553 C.3 0 **** -0.053
5204 C 55.2551 24.8811 94.6538 C.3 0 **** 0
5205 C 55.4989 23.7345 95.6382 C.3 0 **** 0
5206 C 55.0594 25.5821 92.2748 C.3 0 **** 0
5207 C 55.0861 24.3672 93.2211 C.3 0 **** 0
5208 C 53.5764 27.1794 90.1688 C.3 0 **** 0
5209 C 54.7815 26.2193 89.9119 C.3 0 **** 0
5210 C 54.8396 25.0025 90.8534 C.3 0 **** 0
5211 O 51.7798 29.3344 91.1639 O.3 0 **** -0.32
5212 C 51.9263 30.7377 91.3783 C.3 0 **** 0.107
5213 C 51.7175 31.0814 92.8883 C.3 0 **** -0.053
5214 C 51.0924 29.8944 93.6176 C.3 0 **** 0.107
5215 C 50.8479 32.338 93.0424 C.3 0 **** -0.106
5216 C 51.2322 33.3781 91.974 C.3 0 **** -0.106
5217 C 50.7994 32.8979 90.576 C.3 0 **** 0.134
5218 C 50.9149 31.356 90.4361 C.3 0 **** -0.053
5219 C 51.2153 30.9201 88.9805 C.3 0 **** -0.106
5220 C 50.5051 31.851 88.006 C.3 0 **** -0.106
5221 C 50.9817 33.3225 88.2032 C.3 0 **** 0.081
5222 N 51.5176 33.6035 89.5337 N.3 0 **** -0.727
5223 C 56.6672 22.8103 95.2024 C.3 0 **** 0.16
5224 C 56.3802 22.2797 93.8064 C.3 0 **** 0.16
5225 C 56.3383 23.4462 92.8612 C.3 0 **** 0
5226 O 57.2988 21.3149 93.3392 O.3 0 **** -0.32
5227 C 57.4844 20.309 94.3291 C.3 0 **** 0.107
5228 C 57.9891 20.9463 95.5872 C.3 0 **** 0.107
5229 O 56.9383 21.7469 96.102 O.3 0 **** -0.32
5230 C 59.2792 21.7738 95.3514 C.3 0 **** -0.106
5231 C 60.1088 21.2242 94.1554 C.3 0 **** -0.106
5232 C 59.9228 19.6983 94.038 C.3 0 **** -0.106
5233 C 58.4472 19.3109 93.7373 C.3 0 **** -0.106
5234 C 56.0564 24.0605 90.4397 C.3 0 **** 0
5235 C 56.1113 22.854 91.4311 C.3 0 **** -0.053
5236 C 54.6722 25.6729 88.4788 C.3 0 **** 0
5237 C 55.8047 24.6875 88.1347 C.3 0 **** 0.16
5238 C 55.9086 23.5188 89.03 C.3 0 **** -0.053
5239 C 54.7054 26.9383 87.5341 C.3 0 **** 0
5240 C 53.4983 27.9094 87.8649 C.3 0 **** 0
5241 C 53.7429 28.4453 89.2841 C.3 0 **** -0.053
5242 O 55.8274 24.2268 86.8255 O.3 0 **** -0.32
5243 C 55.6601 25.3258 85.9385 C.3 0 **** 0.16
5244 C 54.4295 26.2969 86.1778 C.3 0 **** 0
5245 C 53.3115 29.0937 86.8754 C.3 0 **** -0.053
5246 C 53.3358 28.5629 85.4434 C.3 0 **** -0.053
5247 C 54.4275 27.4592 85.1766 C.3 0 **** 0
5248 C 53.7275 29.6446 84.4957 C.3 0 **** -0.053
5249 C 53.0931 30.9536 84.8848 C.3 0 **** -0.106
5250 C 53.7503 31.4423 86.2076 C.3 0 **** -0.106
5251 C 54.3007 30.2674 87.0421 C.3 0 **** -0.106
5252 C 54.2182 26.8624 83.805 C.3 0 **** 0
5253 C 55.2349 25.7324 83.4649 C.3 0 **** 0
5254 C 55.5727 24.7258 84.5625 C.3 0 **** 0
5255 C 53.2375 29.1004 83.1563 C.3 0 **** 0
5256 C 54.1365 27.925 82.7312 C.3 0 **** 0
5257 C 56.2444 30.4409 105.58 C.3 0 **** -0.053
5258 C 56.5764 30.4555 104.081 C.3 0 **** -0.159
5259 C 56.4278 31.8422 106.175 C.3 0 **** -0.159
5260 O 50.7997 30.2301 94.9669 O.3 0 **** -0.57
5261 C 56.1776 23.3285 84.2479 C.3 0 **** -0.053
5262 C 56.6763 23.123 82.8139 C.3 0 **** -0.053
5263 C 55.6869 23.7455 81.8121 C.3 0 **** 0
5264 C 55.4406 25.2704 82.0335 C.3 0 **** 0
5265 C 54.6456 26.0847 81.0276 C.3 0 **** 0
5266 C 54.5629 25.5439 79.6301 C.3 0 **** 0
5267 C 55.3577 24.2509 79.3187 C.3 0 **** 0
5268 C 56.2054 23.52 80.3876 C.3 0 **** -0.053
5269 C 55.4766 23.7948 77.871 C.3 0 **** -0.053
5270 C 54.9928 24.7548 76.7621 C.3 0 **** -0.053
5271 C 54.0072 25.8955 77.1639 C.3 0 **** 0
5272 C 54.3644 26.589 78.5049 C.3 0 **** 0
5273 C 53.2818 27.6589 78.9232 C.3 0 **** 0
5274 C 53.6825 28.3377 80.2873 C.3 0 **** 0
5275 C 53.766 27.281 81.4077 C.3 0 **** 0
5276 C 53.1611 28.7267 77.7895 C.3 0 **** 0
5277 C 52.7713 27.9946 76.4515 C.3 0 **** -0.053
5278 C 53.817 26.9376 76.047 C.3 0 **** -0.053
5279 C 53.1465 30.1503 82.0298 C.3 0 **** -0.053
5280 C 52.5906 29.3869 80.7433 C.3 0 **** 0
5281 C 52.0463 29.7994 78.1824 C.3 0 **** 0.02
5282 C 52.3239 30.4314 79.5918 C.3 0 **** 0
5283 C 51.4021 31.5712 80.0862 C.3 0 **** -0.106
5284 C 50.3812 31.8882 79.0299 C.3 0 **** -0.106
5285 C 51.0642 32.0802 77.6805 C.3 0 **** -0.086
5286 C 51.8602 30.9328 77.1772 C.2 0 **** 0.379
5287 O 52.2408 30.9141 76.0192 O.2 0 **** -0.419
5288 H 60.4334 26.3092 107.587 H 0 **** 0.053
5289 H 59.4422 25.1489 106.708 H 0 **** 0.053
5290 H 59.1336 26.0969 109.568 H 0 **** 0.053
5291 H 57.9298 25.4215 108.482 H 0 **** 0.053
5292 H 59.989 23.9677 110.212 H 0 **** 0.053
5293 H 59.3693 21.8351 109.13 H 0 **** 0.053
5294 H 60.345 22.8121 106.655 H 0 **** 0.053
5295 H 61.3445 22.4066 108.047 H 0 **** 0.053
5296 H 58.0739 23.39 106.892 H 0 **** 0.053
5297 H 56.3307 23.9184 108.368 H 0 **** 0.053
5298 H 57.2424 21.6098 110.112 H 0 **** 0.053
5299 H 55.9026 22.6955 110.496 H 0 **** 0.053
5300 H 58.2332 23.2891 111.537 H 0 **** 0.053
5301 H 57.3456 24.6013 110.77 H 0 **** 0.053
5302 H 54.5866 21.3599 106.46 H 0 **** 0.053
5303 H 56.3488 19.9288 106.579 H 0 **** 0.053
5304 H 58.8779 21.145 106.355 H 0 **** 0.053
5305 H 58.0919 20.4968 107.801 H 0 **** 0.053
5306 H 56.3184 23.8773 106.232 H 0 **** 0.053
5307 H 57.5412 20.7742 100.829 H 0 **** 0.053
5308 H 58.6607 21.2887 102.119 H 0 **** 0.053
5309 H 58.2047 18.8305 102.39 H 0 **** 0.053
5310 H 56.4653 19.1235 102.231 H 0 **** 0.053
5311 H 57.4486 18.7777 104.692 H 0 **** 0.1268
5312 H 55.3233 25.8719 105.957 H 0 **** 0.053
5313 H 51.0439 24.0113 106.39 H 0 **** 0.053
5314 H 51.5401 24.4191 108.073 H 0 **** 0.053
5315 H 53.0458 22.5888 107.25 H 0 **** 0.1268
5316 H 49.9748 26.3143 107.073 H 0 **** 0.053
5317 H 51.1689 27.1852 108.066 H 0 **** 0.053
5318 H 50.1946 28.8139 106.468 H 0 **** 0.053
5319 H 50.5201 27.723 105.105 H 0 **** 0.053
5320 H 55.4738 27.9149 106.428 H 0 **** 0.053
5321 H 55.148 28.1012 104.705 H 0 **** 0.053
5322 H 54.6282 30.0901 106.956 H 0 **** 0.053
5323 H 53.7979 30.2261 104.01 H 0 **** 0.053
5324 H 53.77 31.6295 105.084 H 0 **** 0.053
5325 H 51.5393 30.3589 104.893 H 0 **** 0.053
5326 H 52.131 30.642 106.551 H 0 **** 0.053
5327 H 53.1271 27.1034 103.647 H 0 **** 0.053
5328 H 52.5086 28.7453 98.5105 H 0 **** 0.053
5329 H 52.3098 29.3078 96.2364 H 0 **** 0.053
5330 H 56.6575 22.4831 97.9338 H 0 **** 0.053
5331 H 52.9409 31.0335 91.0619 H 0 **** 0.053
5332 H 52.698 31.3204 93.3496 H 0 **** 0.053
5333 H 50.1736 29.6345 93.1109 H 0 **** 0.053
5334 H 49.7764 32.0657 92.9223 H 0 **** 0.053
5335 H 50.9498 32.7476 94.0735 H 0 **** 0.053
5336 H 52.3272 33.5006 92.013 H 0 **** 0.053
5337 H 50.7938 34.3653 92.1889 H 0 **** 0.053
5338 H 49.7322 33.1499 90.4659 H 0 **** 0.053
5339 H 49.9426 30.91 90.7306 H 0 **** 0.053
5340 H 52.2971 31.0241 88.81 H 0 **** 0.053
5341 H 50.9503 29.8594 88.8259 H 0 **** 0.053
5342 H 49.4197 31.766 88.1966 H 0 **** 0.053
5343 H 50.6539 31.5287 86.9612 H 0 **** 0.053
5344 H 50.1383 34.0073 88.0193 H 0 **** 0.053
5345 H 51.7448 33.5806 87.4482 H 0 **** 0.053
5346 H 52.4848 33.352 89.5792 H 0 **** 0.353
5347 H 56.5104 19.865 94.533 H 0 **** 0.053
5348 H 58.2088 20.1762 96.3221 H 0 **** 0.053
5349 H 59.0563 22.8437 95.1535 H 0 **** 0.053
5350 H 59.9132 21.7906 96.263 H 0 **** 0.053
5351 H 61.1802 21.4889 94.2643 H 0 **** 0.053
5352 H 59.7728 21.7064 93.2154 H 0 **** 0.053
5353 H 60.214 19.2523 95.0048 H 0 **** 0.053
5354 H 60.5962 19.2752 93.2705 H 0 **** 0.053
5355 H 58.2479 18.2738 94.0648 H 0 **** 0.053
5356 H 58.286 19.3289 92.6349 H 0 **** 0.053
5357 H 56.9856 22.1805 91.1285 H 0 **** 0.053
5358 H 56.7223 22.805 88.7893 H 0 **** 0.053
5359 H 52.938 29.2053 89.4934 H 0 **** 0.053
5360 H 52.3214 29.4672 87.0982 H 0 **** 0.053
5361 H 52.3347 28.1478 85.214 H 0 **** 0.053
5362 H 54.8283 29.7873 84.4541 H 0 **** 0.053
5363 H 52.008 30.7899 85.0263 H 0 **** 0.053
5364 H 53.1976 31.7531 84.1193 H 0 **** 0.053
5365 H 53.005 31.9973 86.8121 H 0 **** 0.053
5366 H 54.5567 32.1653 85.9789 H 0 **** 0.053
5367 H 54.4261 30.5763 88.0956 H 0 **** 0.053
5368 H 55.2924 29.9615 86.684 H 0 **** 0.053
5369 H 56.9751 29.7773 106.08 H 0 **** 0.053
5370 H 57.6252 30.7491 103.914 H 0 **** 0.053
5371 H 55.9377 31.1771 103.545 H 0 **** 0.053
5372 H 56.4309 29.47 103.61 H 0 **** 0.053
5373 H 56.2496 31.8408 107.262 H 0 **** 0.053
5374 H 55.7254 32.5583 105.72 H 0 **** 0.053
5375 H 57.4491 32.2158 106.003 H 0 **** 0.053
5376 H 50.4112 29.447 95.351 H 0 **** 0.41
5377 H 56.7542 22.8328 85.0788 H 0 **** 0.053
5378 H 56.8833 22.0375 82.6 H 0 **** 0.053
5379 H 56.3999 22.4421 80.133 H 0 **** 0.053
5380 H 55.9815 22.8241 77.6329 H 0 **** 0.053
5381 H 54.8884 24.3193 75.7371 H 0 **** 0.053
5382 H 52.61 28.7077 75.5991 H 0 **** 0.053
5383 H 53.5959 26.4492 75.0698 H 0 **** 0.053
5384 H 52.4372 31.0085 82.3168 H 0 **** 0.053
5385 H 50.918 31.3134 81.0446 H 0 **** 0.053
5386 H 52.087 32.398 80.2679 H 0 **** 0.053
5387 H 49.8304 32.787 79.3018 H 0 **** 0.053
5388 H 49.6444 31.0611 78.9769 H 0 **** 0.053
5389 H 51.798 32.8891 77.7232 H 0 **** 0.053
5390 H 50.3936 32.2472 76.8406 H 0 **** 0.053
5391 C 50.0361 11.5981 14.4817 C.3 0 **** 0.054
5392 C 50.3313 11.8354 12.9725 C.3 0 **** -0.106
5393 C 51.7304 12.4809 12.7707 C.3 0 **** -0.053
5394 C 51.9478 13.5345 13.8834 C.3 0 **** -0.053
5395 C 51.8251 12.8646 15.285 C.3 0 **** 0.054
5396 O 51.2379 11.5722 15.2339 O.3 0 **** -0.32
5397 C 50.9501 14.7202 13.7285 C.3 0 **** -0.053
5398 C 50.6731 15.0872 12.2206 C.3 0 **** 0.107
5399 C 51.8134 14.5993 11.3353 C.3 0 **** -0.106
5400 C 51.9391 13.0668 11.3519 C.3 0 **** -0.106
5401 O 50.5196 16.4895 11.9748 O.3 0 **** -0.32
5402 C 49.73 17.0916 12.9886 C.3 0 **** 0.107
5403 C 50.6276 17.2342 14.2467 C.3 0 **** -0.053
5404 C 51.4538 15.9493 14.5114 C.3 0 **** -0.106
5405 C 49.9133 17.6789 15.4973 C.2 0 **** 0
5406 C 48.4814 17.1866 15.6534 C.3 0 **** 0
5407 C 47.6774 17.0607 14.36 C.3 0 **** 0
5408 C 48.3826 16.3993 13.1822 C.3 0 **** -0.053
5409 C 46.2619 16.5521 14.5485 C.3 0 **** 0
5410 C 45.5148 17.4001 15.5721 C.3 0 **** 0
5411 C 46.346 17.42 16.9093 C.3 0 **** 0.16
5412 C 47.7433 17.9684 16.7211 C.3 0 **** 0
5413 C 48.5214 18.1543 18.0525 C.3 0 **** -0.106
5414 C 49.7148 19.0155 17.6672 C.3 0 **** -0.106
5415 C 50.4472 18.4983 16.4341 C.2 0 **** -0.1268
5416 O 45.7263 17.8751 18.1325 O.3 0 **** -0.32
5417 C 44.4028 18.3227 17.9315 C.3 0 **** 0.16
5418 C 43.4694 17.3824 17.0987 C.3 0 **** 0
5419 C 44.0903 16.8267 15.7922 C.3 0 **** 0
5420 C 47.4813 16.45 11.9758 C.2 0 **** 0
5421 C 46.259 15.594 12.1532 C.3 0 **** -0.053
5422 C 45.4627 16.3608 13.2477 C.3 0 **** 0
5423 C 45.3422 15.4274 10.9616 C.2 0 **** 0
5424 C 45.4659 16.3081 9.9343 C.2 0 **** 0
5425 C 46.5801 17.34 9.83548 C.3 0 **** -0.106
5426 C 47.6346 17.2495 10.9262 C.2 0 **** -0.1268
5427 C 44.6049 16.1838 8.69844 C.3 0 **** -0.106
5428 C 43.2247 15.6807 9.09562 C.3 0 **** -0.106
5429 C 43.3773 14.487 10.0224 C.2 0 **** 0
5430 C 44.4301 14.405 10.8989 C.2 0 **** 0
5431 C 44.5161 13.2259 11.8497 C.3 0 **** -0.106
5432 C 43.6429 12.0467 11.4457 C.3 0 **** -0.053
5433 C 42.2139 12.5419 11.1647 C.3 0 **** -0.106
5434 C 42.2292 13.5017 9.96985 C.3 0 **** -0.106
5435 C 43.3131 16.8334 14.4697 C.3 0 **** 0.147
5436 C 44.0025 15.8927 13.4923 C.3 0 **** -0.053
5437 C 42.0211 17.8659 16.9653 C.3 0 **** 0
5438 C 41.0828 16.9894 16.1263 C.3 0 **** 0.147
5439 S 41.5571 16.3711 14.5293 S.3 0 **** -0.294
5440 C 39.6436 17.4253 16.1202 C.3 0 **** -0.053
5441 C 39.1597 17.554 17.5707 C.3 0 **** 0
5442 C 40.0582 18.5449 18.4057 C.3 0 **** 0
5443 C 41.5152 18.0389 18.4248 C.3 0 **** 0
5444 C 39.5116 18.6246 19.8237 C.3 0 **** 0
5445 C 38.0809 19.1229 19.7862 C.3 0 **** 0
5446 C 37.118 18.2082 18.9187 C.3 0 **** 0
5447 C 37.6972 18.091 17.4615 C.3 0 **** -0.053
5448 C 35.7324 18.9111 18.8716 C.3 0 **** 0
5449 C 35.1562 18.8415 20.2688 C.3 0 **** 0.16
5450 C 36.0663 19.4768 21.3243 C.3 0 **** 0
5451 C 37.554 19.5398 21.1314 C.3 0 **** 0
5452 C 42.466 18.8666 19.3301 C.3 0 **** 0
5453 C 43.8979 18.3412 19.3515 C.3 0 **** -0.053
5454 C 40.4343 19.2175 20.9115 C.3 0 **** 0
5455 C 41.894 19.5552 20.5987 C.3 0 **** 0
5456 C 38.4579 19.6465 22.3597 C.3 0 **** 0
5457 C 39.8431 20.1785 21.9468 C.3 0 **** 0
5458 C 35.4725 20.1201 22.578 C.3 0 **** 0
5459 C 36.4962 20.1658 23.7566 C.3 0 **** 0
5460 C 37.8945 20.6809 23.3682 C.3 0 **** 0
5461 O 33.8304 19.3228 20.2261 O.3 0 **** -0.32
5462 C 33.0926 18.1533 19.8738 C.3 0 **** 0.107
5463 C 33.6741 17.5169 18.5702 C.3 0 **** -0.053
5464 C 34.6185 18.4986 17.8794 C.3 0 **** 0.107
5465 C 32.5417 17.0898 17.6246 C.3 0 **** -0.106
5466 C 31.3838 16.476 18.433 C.3 0 **** -0.106
5467 C 30.6726 17.5613 19.2626 C.3 0 **** 0.134
5468 C 31.6647 18.6452 19.7633 C.3 0 **** -0.053
5469 C 31.2175 19.2736 21.1065 C.3 0 **** -0.106
5470 C 29.6976 19.3697 21.1512 C.3 0 **** -0.106
5471 C 29.0512 17.9573 21.012 C.3 0 **** 0.081
5472 N 29.9012 16.9755 20.3405 N.3 0 **** -0.727
5473 C 42.7713 19.6591 21.8751 C.3 0 **** 0.16
5474 C 42.1599 20.6916 22.8093 C.3 0 **** 0.16
5475 C 40.8012 20.203 23.2222 C.3 0 **** 0
5476 O 42.9331 20.9857 23.953 O.3 0 **** -0.32
5477 C 44.2765 21.2568 23.5682 C.3 0 **** 0.107
5478 C 44.8322 20.0631 22.8542 C.3 0 **** 0.107
5479 O 44.1374 19.9496 21.6236 O.3 0 **** -0.32
5480 C 44.7201 18.7672 23.6985 C.3 0 **** -0.106
5481 C 44.7416 19.0672 25.2249 C.3 0 **** -0.106
5482 C 45.6014 20.3153 25.5077 C.3 0 **** -0.106
5483 C 45.0171 21.5913 24.8383 C.3 0 **** -0.106
5484 C 38.8188 20.76 24.6639 C.3 0 **** 0
5485 C 40.2371 21.2537 24.2339 C.3 0 **** -0.053
5486 C 35.9519 21.1152 24.8366 C.3 0 **** 0
5487 C 36.9107 21.2521 26.0369 C.3 0 **** 0.16
5488 C 38.2702 21.7244 25.6998 C.3 0 **** -0.053
5489 C 34.5621 20.5092 25.2791 C.3 0 **** 0
5490 C 33.5742 20.4303 24.0445 C.3 0 **** 0
5491 C 34.1773 19.4128 23.0637 C.3 0 **** -0.053
5492 O 36.4448 22.0151 27.1012 O.3 0 **** -0.32
5493 C 35.1069 21.6324 27.3997 C.3 0 **** 0.16
5494 C 34.0528 21.6015 26.2142 C.3 0 **** 0
5495 C 32.1119 20.0329 24.3905 C.3 0 **** -0.053
5496 C 31.6188 20.8888 25.5553 C.3 0 **** -0.053
5497 C 32.682 21.1099 26.6958 C.3 0 **** 0
5498 C 30.509 20.1992 26.2726 C.3 0 **** -0.053
5499 C 29.588 19.5115 25.2998 C.3 0 **** -0.106
5500 C 30.3494 18.3098 24.67 C.3 0 **** -0.106
5501 C 31.8756 18.5336 24.6728 C.3 0 **** -0.106
5502 C 32.1635 22.1335 27.6779 C.3 0 **** 0
5503 C 33.1654 22.451 28.8274 C.3 0 **** 0
5504 C 34.6444 22.5793 28.4726 C.3 0 **** 0
5505 C 29.8494 21.3451 27.0355 C.3 0 **** 0
5506 C 30.779 21.7881 28.1803 C.3 0 **** 0
5507 C 43.7211 10.8911 12.4768 C.3 0 **** -0.053
5508 C 42.9635 11.1919 13.7784 C.3 0 **** -0.159
5509 C 43.2285 9.57092 11.8727 C.3 0 **** -0.159
5510 O 35.0701 17.976 16.6372 O.3 0 **** -0.57
5511 C 35.6543 23.3343 29.3825 C.3 0 **** -0.053
5512 C 35.1572 23.6658 30.793 C.3 0 **** -0.053
5513 C 33.7003 24.1601 30.7409 C.3 0 **** 0
5514 C 32.7094 23.1397 30.1001 C.3 0 **** 0
5515 C 31.2111 23.3842 30.1338 C.3 0 **** 0
5516 C 30.6971 24.2974 31.2077 C.3 0 **** 0
5517 C 31.7264 24.8535 32.2234 C.3 0 **** 0
5518 C 33.2307 24.4953 32.1603 C.3 0 **** -0.053
5519 C 31.2163 25.5994 33.4488 C.3 0 **** -0.053
5520 C 29.6982 25.5852 33.7325 C.3 0 **** -0.053
5521 C 28.739 25.2272 32.5554 C.3 0 **** 0
5522 C 29.2404 24.0543 31.6726 C.3 0 **** 0
5523 C 28.2948 23.8007 30.4342 C.3 0 **** 0
5524 C 28.8395 22.6038 29.5666 C.3 0 **** 0
5525 C 30.2491 22.9281 29.0309 C.3 0 **** 0
5526 C 26.8535 23.4953 30.9527 C.3 0 **** 0
5527 C 26.3644 24.7145 31.8203 C.3 0 **** -0.053
5528 C 27.2935 24.9767 33.0214 C.3 0 **** -0.053
5529 C 28.4373 21.032 27.5721 C.3 0 **** -0.053
5530 C 27.9261 22.3578 28.2989 C.3 0 **** 0
5531 C 25.8764 23.2684 29.7114 C.3 0 **** 0.02
5532 C 26.4239 22.1641 28.7395 C.3 0 **** 0
5533 C 25.5488 21.7361 27.5372 C.3 0 **** -0.106
5534 C 24.2499 22.4906 27.5678 C.3 0 **** -0.106
5535 C 23.6212 22.3989 28.953 C.3 0 **** -0.086
5536 C 24.4391 22.9115 30.0805 C.2 0 **** 0.379
5537 O 23.9285 23.0885 31.1735 O.2 0 **** -0.419
5538 H 49.5445 10.6283 14.6382 H 0 **** 0.053
5539 H 49.3445 12.3629 14.8679 H 0 **** 0.053
5540 H 50.2874 10.8919 12.3937 H 0 **** 0.053
5541 H 49.5468 12.4781 12.5316 H 0 **** 0.053
5542 H 52.4702 11.6807 12.9345 H 0 **** 0.053
5543 H 52.9619 13.9571 13.7585 H 0 **** 0.053
5544 H 51.2701 13.51 15.9878 H 0 **** 0.053
5545 H 52.8199 12.719 15.7204 H 0 **** 0.053
5546 H 50.0097 14.3924 14.2044 H 0 **** 0.053
5547 H 49.7595 14.5659 11.8803 H 0 **** 0.053
5548 H 52.745 15.0734 11.6982 H 0 **** 0.053
5549 H 51.653 14.9757 10.3127 H 0 **** 0.053
5550 H 52.9262 12.7799 10.9641 H 0 **** 0.053
5551 H 51.1981 12.6387 10.662 H 0 **** 0.053
5552 H 49.5354 18.1126 12.6543 H 0 **** 0.053
5553 H 51.3476 18.0299 14.0244 H 0 **** 0.053
5554 H 51.54 15.6992 15.5916 H 0 **** 0.053
5555 H 52.4831 16.1469 14.1637 H 0 **** 0.053
5556 H 48.5035 15.3335 13.429 H 0 **** 0.053
5557 H 47.8808 18.6662 18.7975 H 0 **** 0.053
5558 H 48.8127 17.1766 18.4898 H 0 **** 0.053
5559 H 50.4031 19.1246 18.5089 H 0 **** 0.053
5560 H 49.3336 20.0238 17.4208 H 0 **** 0.053
5561 H 51.4765 18.8341 16.3551 H 0 **** 0.1268
5562 H 46.5684 14.5995 12.5564 H 0 **** 0.053
5563 H 46.1439 18.3832 9.82439 H 0 **** 0.053
5564 H 47.1022 17.2142 8.84467 H 0 **** 0.053
5565 H 48.5005 17.8952 10.8131 H 0 **** 0.1268
5566 H 44.5438 17.1457 8.14468 H 0 **** 0.053
5567 H 45.0947 15.4565 8.02634 H 0 **** 0.053
5568 H 42.6198 15.4251 8.20314 H 0 **** 0.053
5569 H 42.6756 16.4769 9.63395 H 0 **** 0.053
5570 H 45.5603 12.8814 11.886 H 0 **** 0.053
5571 H 44.2601 13.5346 12.8818 H 0 **** 0.053
5572 H 44.0525 11.6529 10.4927 H 0 **** 0.053
5573 H 41.8283 13.066 12.0538 H 0 **** 0.053
5574 H 41.5254 11.7088 10.9637 H 0 **** 0.053
5575 H 41.2546 14.0392 9.90358 H 0 **** 0.053
5576 H 42.3238 12.9102 9.03147 H 0 **** 0.053
5577 H 43.3838 15.8387 12.5315 H 0 **** 0.053
5578 H 38.9406 16.7912 15.5011 H 0 **** 0.053
5579 H 37.12 17.2866 16.9037 H 0 **** 0.053
5580 H 44.6178 18.9659 19.9572 H 0 **** 0.053
5581 H 33.1625 17.4341 20.7073 H 0 **** 0.053
5582 H 34.2313 16.593 18.8296 H 0 **** 0.053
5583 H 34.0763 19.4165 17.6993 H 0 **** 0.053
5584 H 32.1709 17.9768 17.0661 H 0 **** 0.053
5585 H 32.9325 16.3814 16.8585 H 0 **** 0.053
5586 H 31.8168 15.7106 19.0981 H 0 **** 0.053
5587 H 30.66 15.9597 17.7829 H 0 **** 0.053
5588 H 29.9607 18.0657 18.5894 H 0 **** 0.053
5589 H 31.7016 19.4549 19.0057 H 0 **** 0.053
5590 H 31.5319 18.6015 21.9186 H 0 **** 0.053
5591 H 31.7106 20.2487 21.2668 H 0 **** 0.053
5592 H 29.3816 20.0248 20.3192 H 0 **** 0.053
5593 H 29.3535 19.8678 22.0738 H 0 **** 0.053
5594 H 28.1074 18.0406 20.4492 H 0 **** 0.053
5595 H 28.7707 17.5675 22.0063 H 0 **** 0.053
5596 H 30.5287 16.5554 20.9969 H 0 **** 0.353
5597 H 44.2564 22.0968 22.8743 H 0 **** 0.053
5598 H 45.8818 20.2313 22.6272 H 0 **** 0.053
5599 H 43.7911 18.2024 23.4714 H 0 **** 0.053
5600 H 45.5385 18.0588 23.4504 H 0 **** 0.053
5601 H 45.1114 18.1901 25.7938 H 0 **** 0.053
5602 H 43.7084 19.2465 25.5847 H 0 **** 0.053
5603 H 46.6066 20.1281 25.0917 H 0 **** 0.053
5604 H 45.7253 20.4729 26.5946 H 0 **** 0.053
5605 H 45.8124 22.3445 24.6875 H 0 **** 0.053
5606 H 44.2735 22.0532 25.5277 H 0 **** 0.053
5607 H 40.8953 21.311 25.168 H 0 **** 0.053
5608 H 38.964 21.8215 26.5608 H 0 **** 0.053
5609 H 33.4366 19.285 22.2244 H 0 **** 0.053
5610 H 31.5534 20.2899 23.5007 H 0 **** 0.053
5611 H 31.3086 21.8725 25.1517 H 0 **** 0.053
5612 H 30.8831 19.4431 26.9955 H 0 **** 0.053
5613 H 29.2947 20.239 24.5193 H 0 **** 0.053
5614 H 28.6457 19.1365 25.7553 H 0 **** 0.053
5615 H 30.008 18.1573 23.6264 H 0 **** 0.053
5616 H 30.094 17.38 25.2136 H 0 **** 0.053
5617 H 32.3572 17.8757 23.9269 H 0 **** 0.053
5618 H 32.3095 18.2742 25.6473 H 0 **** 0.053
5619 H 44.7888 10.7529 12.733 H 0 **** 0.053
5620 H 43.1396 10.4018 14.5258 H 0 **** 0.053
5621 H 41.8776 11.2445 13.5962 H 0 **** 0.053
5622 H 43.2714 12.1483 14.2308 H 0 **** 0.053
5623 H 43.8 9.30803 10.9683 H 0 **** 0.053
5624 H 42.1659 9.63827 11.5911 H 0 **** 0.053
5625 H 43.3361 8.74191 12.5891 H 0 **** 0.053
5626 H 35.6486 18.6437 16.2734 H 0 **** 0.41
5627 H 36.7383 23.0516 29.2653 H 0 **** 0.053
5628 H 35.8424 24.3917 31.3122 H 0 **** 0.053
5629 H 33.8813 25.238 32.6974 H 0 **** 0.053
5630 H 31.9446 26.0734 34.1548 H 0 **** 0.053
5631 H 29.3276 26.3114 34.4983 H 0 **** 0.053
5632 H 25.3087 24.5917 32.183 H 0 **** 0.053
5633 H 26.9342 25.7953 33.6871 H 0 **** 0.053
5634 H 27.7211 20.7493 26.7179 H 0 **** 0.053
5635 H 26.0754 21.8871 26.5783 H 0 **** 0.053
5636 H 25.4163 20.665 27.6817 H 0 **** 0.053
5637 H 23.5683 22.0899 26.8213 H 0 **** 0.053
5638 H 24.4384 23.5486 27.2956 H 0 **** 0.053
5639 H 23.4393 21.3585 29.2347 H 0 **** 0.053
5640 H 22.7071 22.9729 29.0869 H 0 **** 0.053
5641 C 77.307 1.24157 52.7957 C.3 0 **** 0.054
5642 C 77.1045 0.788435 54.2705 C.3 0 **** -0.106
5643 C 76.808 -0.734809 54.3523 C.3 0 **** -0.053
5644 C 75.8697 -1.11364 53.1811 C.3 0 **** -0.053
5645 C 76.5304 -0.732915 51.8221 C.3 0 **** 0.054
5646 O 77.6419 0.139117 51.969 O.3 0 **** -0.32
5647 C 74.4754 -0.439943 53.346 C.3 0 **** -0.053
5648 C 74.0097 -0.369458 54.8504 C.3 0 **** 0.107
5649 C 74.7314 -1.42309 55.6818 C.3 0 **** -0.106
5650 C 76.2491 -1.17998 55.7269 C.3 0 **** -0.106
5651 O 72.6051 -0.571843 55.0413 O.3 0 **** -0.32
5652 C 71.8603 0.124815 54.0545 C.3 0 **** 0.107
5653 C 71.9733 -0.685972 52.7359 C.3 0 **** -0.053
5654 C 73.4259 -1.16195 52.4772 C.3 0 **** -0.106
5655 C 71.4062 -0.00779569 51.515 C.2 0 **** 0
5656 C 71.5448 1.50753 51.4741 C.3 0 **** 0
5657 C 71.4371 2.22106 52.8212 C.3 0 **** 0
5658 C 72.2144 1.6084 53.9798 C.3 0 **** -0.053
5659 C 71.5965 3.72664 52.7474 C.3 0 **** 0
5660 C 70.6234 4.32426 51.737 C.3 0 **** 0
5661 C 70.8417 3.61274 50.3494 C.3 0 **** 0.16
5662 C 70.6395 2.11527 50.422 C.3 0 **** 0
5663 C 70.6839 1.41526 49.0361 C.3 0 **** -0.106
5664 C 70.1235 0.0266761 49.304 C.3 0 **** -0.106
5665 C 70.766 -0.650526 50.5095 C.2 0 **** -0.1268
5666 O 70.2865 4.19489 49.1492 O.3 0 **** -0.32
5667 C 69.5289 5.3558 49.4148 C.3 0 **** 0.16
5668 C 70.1936 6.42197 50.3478 C.3 0 **** 0
5669 C 70.8444 5.85642 51.6355 C.3 0 **** 0
5670 C 71.9144 2.38037 55.2383 C.2 0 **** 0
5671 C 72.457 3.78049 55.1785 C.3 0 **** -0.053
5672 C 71.5533 4.45051 54.1042 C.3 0 **** 0
5673 C 72.3629 4.62125 56.4321 C.2 0 **** 0
5674 C 71.5048 4.21807 57.405 C.2 0 **** 0
5675 C 70.7719 2.88517 57.3886 C.3 0 **** -0.106
5676 C 71.1451 1.96485 56.2382 C.2 0 **** -0.1268
5677 C 71.3807 4.99013 58.6955 C.3 0 **** -0.106
5678 C 71.5559 6.47446 58.4184 C.3 0 **** -0.106
5679 C 72.7785 6.67737 57.54 C.2 0 **** 0
5680 C 73.1356 5.74188 56.6015 C.2 0 **** 0
5681 C 74.328 6.00841 55.7021 C.3 0 **** -0.106
5682 C 75.2512 7.10447 56.2144 C.3 0 **** -0.053
5683 C 74.4197 8.35031 56.5644 C.3 0 **** -0.106
5684 C 73.4581 8.01965 57.7112 C.3 0 **** -0.106
5685 C 70.6134 6.51039 53.0038 C.3 0 **** 0.147
5686 C 71.6638 5.99419 53.9761 C.3 0 **** -0.053
5687 C 69.373 7.70016 50.5522 C.3 0 **** 0
5688 C 69.9741 8.75546 51.489 C.3 0 **** 0.147
5689 S 70.6435 8.32552 53.0778 S.3 0 **** -0.294
5690 C 69.2059 10.0458 51.5682 C.3 0 **** -0.053
5691 C 69.0067 10.5906 50.1475 C.3 0 **** 0
5692 C 68.2845 9.54635 49.2123 C.3 0 **** 0
5693 C 69.1258 8.25658 49.1221 C.3 0 **** 0
5694 C 68.1167 10.161 47.8303 C.3 0 **** 0
5695 C 67.2887 11.4259 47.9373 C.3 0 **** 0
5696 C 67.9206 12.512 48.9057 C.3 0 **** 0
5697 C 68.1314 11.8717 50.3264 C.3 0 **** -0.053
5698 C 66.9045 13.6837 49.0102 C.3 0 **** 0
5699 C 66.8742 14.361 47.6575 C.3 0 **** 0.16
5700 C 66.5056 13.4062 46.5181 C.3 0 **** 0
5701 C 66.7968 11.9363 46.6113 C.3 0 **** 0
5702 C 68.5764 7.20558 48.1209 C.3 0 **** 0
5703 C 69.4305 5.94482 48.031 C.3 0 **** -0.053
5704 C 67.7938 9.20649 46.6595 C.3 0 **** 0
5705 C 67.8074 7.68943 46.8618 C.3 0 **** 0
5706 C 66.9447 11.1254 45.3238 C.3 0 **** 0
5707 C 66.7491 9.62714 45.622 C.3 0 **** 0
5708 C 65.7757 13.9209 45.2771 C.3 0 **** 0
5709 C 66.0101 13.0052 44.0343 C.3 0 **** 0
5710 C 65.8352 11.4998 44.3077 C.3 0 **** 0
5711 O 66.0877 15.5278 47.7637 O.3 0 **** -0.32
5712 C 67.0356 16.4938 48.2156 C.3 0 **** 0.107
5713 C 67.7553 15.9859 49.5065 C.3 0 **** -0.053
5714 C 67.0092 14.7877 50.0898 C.3 0 **** 0.107
5715 C 67.871 17.1146 50.5415 C.3 0 **** -0.106
5716 C 68.2122 18.4411 49.838 C.3 0 **** -0.106
5717 C 67.0122 18.9333 49.0073 C.3 0 **** 0.134
5718 C 66.2125 17.7519 48.3954 C.3 0 **** -0.053
5719 C 65.5339 18.1341 47.0566 C.3 0 **** -0.106
5720 C 65.0775 19.5865 47.1054 C.3 0 **** -0.106
5721 C 66.2892 20.5371 47.3492 C.3 0 **** 0.081
5722 N 67.4266 19.8981 48.0086 N.3 0 **** -0.727
5723 C 67.9536 6.90876 45.5281 C.3 0 **** 0.16
5724 C 66.8319 7.32454 44.5894 C.3 0 **** 0.16
5725 C 66.9916 8.78686 44.2877 C.3 0 **** 0
5726 O 66.7648 6.58986 43.3859 O.3 0 **** -0.32
5727 C 66.8128 5.19602 43.6707 C.3 0 **** 0.107
5728 C 68.084 4.88854 44.4007 C.3 0 **** 0.107
5729 O 67.9922 5.49804 45.6775 O.3 0 **** -0.32
5730 C 69.3388 5.36671 43.6251 C.3 0 **** -0.106
5731 C 69.0966 5.38679 42.0884 C.3 0 **** -0.106
5732 C 68.0999 4.27854 41.6944 C.3 0 **** -0.106
5733 C 66.7023 4.4926 42.3416 C.3 0 **** -0.106
5734 C 66.0172 10.6808 42.9529 C.3 0 **** 0
5735 C 65.866 9.15838 43.2678 C.3 0 **** -0.053
5736 C 64.9889 13.3868 42.9502 C.3 0 **** 0
5737 C 65.1208 12.5131 41.6853 C.3 0 **** 0.16
5738 C 64.9783 11.0586 41.9125 C.3 0 **** -0.053
5739 C 65.2566 14.909 42.6258 C.3 0 **** 0
5740 C 65.0612 15.794 43.9236 C.3 0 **** 0
5741 C 66.1647 15.379 44.9087 C.3 0 **** -0.053
5742 O 64.3001 12.8613 40.6181 O.3 0 **** -0.32
5743 C 64.358 14.2707 40.4255 C.3 0 **** 0.16
5744 C 64.1008 15.2119 41.6772 C.3 0 **** 0
5745 C 65.1056 17.33 43.691 C.3 0 **** -0.053
5746 C 64.1902 17.69 42.5228 C.3 0 **** -0.053
5747 C 64.2632 16.6915 41.3074 C.3 0 **** 0
5748 C 64.6137 18.9814 41.9105 C.3 0 **** -0.053
5749 C 65.0321 19.9652 42.9709 C.3 0 **** -0.106
5750 C 66.3629 19.4666 43.6041 C.3 0 **** -0.106
5751 C 66.5119 17.9353 43.4928 C.3 0 **** -0.106
5752 C 63.1738 17.0231 40.3152 C.3 0 **** 0
5753 C 63.1372 16.0615 39.0905 C.3 0 **** 0
5754 C 63.3605 14.5729 39.3413 C.3 0 **** 0
5755 C 63.3654 19.4043 41.1404 C.3 0 **** 0
5756 C 63.1913 18.4829 39.9193 C.3 0 **** 0
5757 C 76.4206 7.37895 55.2337 C.3 0 **** -0.053
5758 C 75.9842 8.13713 53.9713 C.3 0 **** -0.159
5759 C 77.5662 8.12511 55.9275 C.3 0 **** -0.159
5760 O 67.5889 14.3833 51.3228 O.3 0 **** -0.57
5761 C 62.8939 13.4821 38.3366 C.3 0 **** -0.053
5762 C 62.4934 13.9884 36.9478 C.3 0 **** -0.053
5763 C 61.6644 15.2791 37.0697 C.3 0 **** 0
5764 C 62.3979 16.4336 37.8191 C.3 0 **** 0
5765 C 61.8009 17.8284 37.8723 C.3 0 **** 0
5766 C 60.825 18.1894 36.7916 C.3 0 **** 0
5767 C 60.5563 17.1331 35.6906 C.3 0 **** 0
5768 C 61.2669 15.7586 35.6705 C.3 0 **** -0.053
5769 C 59.752 17.5425 34.4645 C.3 0 **** -0.053
5770 C 59.4053 19.0365 34.2824 C.3 0 **** -0.053
5771 C 59.4899 19.9644 35.5333 C.3 0 **** 0
5772 C 60.723 19.6923 36.4339 C.3 0 **** 0
5773 C 60.7072 20.5774 37.7409 C.3 0 **** 0
5774 C 61.9746 20.2699 38.6249 C.3 0 **** 0
5775 C 61.9825 18.7883 39.0536 C.3 0 **** 0
5776 C 60.6728 22.0842 37.3306 C.3 0 **** 0
5777 C 59.3971 22.3322 36.4422 C.3 0 **** -0.053
5778 C 59.3995 21.4582 35.1731 C.3 0 **** -0.053
5779 C 63.346 20.8857 40.7105 C.3 0 **** -0.053
5780 C 61.9581 21.1203 39.9583 C.3 0 **** 0
5781 C 60.6237 22.9937 38.6414 C.3 0 **** 0.02
5782 C 61.7986 22.6538 39.6246 C.3 0 **** 0
5783 C 61.9695 23.5141 40.8991 C.3 0 **** -0.106
5784 C 60.9276 24.5969 40.9198 C.3 0 **** -0.106
5785 C 60.9045 25.3289 39.5828 C.3 0 **** -0.086
5786 C 60.6356 24.4979 38.3826 C.2 0 **** 0.379
5787 O 60.3716 25.03 37.3179 O.2 0 **** -0.419
5788 H 78.1346 1.95944 52.7155 H 0 **** 0.053
5789 H 76.41 1.75841 52.4208 H 0 **** 0.053
5790 H 77.9928 1.01243 54.8932 H 0 **** 0.053
5791 H 76.2799 1.3634 54.7315 H 0 **** 0.053
5792 H 77.7667 -1.24953 54.1776 H 0 **** 0.053
5793 H 75.6993 -2.20537 53.221 H 0 **** 0.053
5794 H 75.7908 -0.296969 51.1281 H 0 **** 0.053
5795 H 76.9227 -1.62999 51.3305 H 0 **** 0.053
5796 H 74.5815 0.583754 52.9471 H 0 **** 0.053
5797 H 74.2864 0.614223 55.2724 H 0 **** 0.053
5798 H 74.5053 -2.41138 55.2385 H 0 **** 0.053
5799 H 74.2982 -1.43215 56.6946 H 0 **** 0.053
5800 H 76.7531 -2.09659 56.0628 H 0 **** 0.053
5801 H 76.4669 -0.4114 56.482 H 0 **** 0.053
5802 H 70.8134 0.0464566 54.3543 H 0 **** 0.053
5803 H 71.3676 -1.58848 52.8751 H 0 **** 0.053
5804 H 73.7203 -1.10679 51.4062 H 0 **** 0.053
5805 H 73.4711 -2.23139 52.7486 H 0 **** 0.053
5806 H 73.2846 1.76241 53.7745 H 0 **** 0.053
5807 H 70.0548 1.96916 48.3116 H 0 **** 0.053
5808 H 71.7151 1.39729 48.6259 H 0 **** 0.053
5809 H 70.2069 -0.604213 48.4157 H 0 **** 0.053
5810 H 69.0467 0.138524 49.5288 H 0 **** 0.053
5811 H 70.685 -1.73304 50.5069 H 0 **** 0.1268
5812 H 73.5081 3.7465 54.8022 H 0 **** 0.053
5813 H 69.6544 3.05754 57.3818 H 0 **** 0.053
5814 H 70.993 2.33867 58.3493 H 0 **** 0.053
5815 H 70.7232 0.964494 56.2665 H 0 **** 0.1268
5816 H 70.4201 4.77945 59.2117 H 0 **** 0.053
5817 H 72.1852 4.6298 59.3558 H 0 **** 0.053
5818 H 71.6345 7.05229 59.3608 H 0 **** 0.053
5819 H 70.6682 6.86119 57.8818 H 0 **** 0.053
5820 H 74.9137 5.08139 55.6142 H 0 **** 0.053
5821 H 73.9965 6.25906 54.6757 H 0 **** 0.053
5822 H 75.7044 6.73113 57.1559 H 0 **** 0.053
5823 H 73.8438 8.6648 55.6794 H 0 **** 0.053
5824 H 75.0569 9.2004 56.8469 H 0 **** 0.053
5825 H 72.7006 8.83114 57.8156 H 0 **** 0.053
5826 H 74.0277 7.99957 58.6676 H 0 **** 0.053
5827 H 71.5402 6.53555 54.9765 H 0 **** 0.053
5828 H 69.6352 10.8317 52.2594 H 0 **** 0.053
5829 H 68.7576 12.5807 50.9561 H 0 **** 0.053
5830 H 69.0143 5.14377 47.3525 H 0 **** 0.053
5831 H 67.7741 16.6583 47.413 H 0 **** 0.053
5832 H 68.7929 15.6846 49.254 H 0 **** 0.053
5833 H 65.9833 15.082 50.2626 H 0 **** 0.053
5834 H 66.9053 17.2226 51.082 H 0 **** 0.053
5835 H 68.6301 16.8481 51.3122 H 0 **** 0.053
5836 H 69.0779 18.2522 49.1819 H 0 **** 0.053
5837 H 68.5207 19.2171 50.5562 H 0 **** 0.053
5838 H 66.3328 19.4538 49.7016 H 0 **** 0.053
5839 H 65.414 17.4687 49.1119 H 0 **** 0.053
5840 H 66.2849 18.049 46.2574 H 0 **** 0.053
5841 H 64.7106 17.4369 46.821 H 0 **** 0.053
5842 H 64.3424 19.6762 47.9259 H 0 **** 0.053
5843 H 64.5377 19.8693 46.1854 H 0 **** 0.053
5844 H 65.9659 21.3894 47.9681 H 0 **** 0.053
5845 H 66.6287 20.9746 46.3942 H 0 **** 0.053
5846 H 68.0047 19.4379 47.334 H 0 **** 0.353
5847 H 65.973 4.96529 44.3256 H 0 **** 0.053
5848 H 68.1661 3.81529 44.5518 H 0 **** 0.053
5849 H 69.6574 6.38388 43.9371 H 0 **** 0.053
5850 H 70.2155 4.72388 43.8519 H 0 **** 0.053
5851 H 70.0527 5.27865 41.5373 H 0 **** 0.053
5852 H 68.6849 6.37148 41.7884 H 0 **** 0.053
5853 H 68.5106 3.31877 42.053 H 0 **** 0.053
5854 H 68.0077 4.20103 40.5958 H 0 **** 0.053
5855 H 66.1578 3.53235 42.4066 H 0 **** 0.053
5856 H 66.0954 5.15394 41.6814 H 0 **** 0.053
5857 H 65.9948 8.57582 42.2916 H 0 **** 0.053
5858 H 65.0762 10.4276 41.0041 H 0 **** 0.053
5859 H 66.0873 16.0651 45.7989 H 0 **** 0.053
5860 H 64.6968 17.7446 44.6025 H 0 **** 0.053
5861 H 63.1496 17.7274 42.9004 H 0 **** 0.053
5862 H 65.4578 18.8515 41.2001 H 0 **** 0.053
5863 H 64.2335 20.019 43.7348 H 0 **** 0.053
5864 H 65.1833 21.0002 42.5943 H 0 **** 0.053
5865 H 66.3993 19.7566 44.6734 H 0 **** 0.053
5866 H 67.2195 19.9744 43.1208 H 0 **** 0.053
5867 H 67.2445 17.5702 44.2352 H 0 **** 0.053
5868 H 66.8956 17.6482 42.5052 H 0 **** 0.053
5869 H 76.8182 6.39631 54.9157 H 0 **** 0.053
5870 H 76.8146 8.20892 53.2508 H 0 **** 0.053
5871 H 75.6674 9.16305 54.2206 H 0 **** 0.053
5872 H 75.143 7.64513 53.4572 H 0 **** 0.053
5873 H 77.9324 7.56736 56.8042 H 0 **** 0.053
5874 H 77.2378 9.11768 56.2737 H 0 **** 0.053
5875 H 78.417 8.2702 55.2441 H 0 **** 0.053
5876 H 67.0705 13.6369 51.6177 H 0 **** 0.41
5877 H 63.4254 12.4908 38.3959 H 0 **** 0.053
5878 H 61.9689 13.1909 36.3528 H 0 **** 0.053
5879 H 60.717 14.9915 35.0608 H 0 **** 0.053
5880 H 59.4822 16.7756 33.6947 H 0 **** 0.053
5881 H 58.6344 19.2794 33.5095 H 0 **** 0.053
5882 H 59.2729 23.4106 36.1546 H 0 **** 0.053
5883 H 58.5379 21.6609 34.4959 H 0 **** 0.053
5884 H 63.4247 21.584 41.6206 H 0 **** 0.053
5885 H 61.9219 22.8969 41.8134 H 0 **** 0.053
5886 H 62.9809 23.9079 40.8121 H 0 **** 0.053
5887 H 61.1346 25.2977 41.7267 H 0 **** 0.053
5888 H 59.9375 24.1442 41.1306 H 0 **** 0.053
5889 H 61.8782 25.7733 39.3612 H 0 **** 0.053
5890 H 60.1318 26.0878 39.4824 H 0 **** 0.053
5891 C 57.7469 98.8548 70.9937 C.3 0 **** 0.054
5892 C 57.6651 99.6638 72.3203 C.3 0 **** -0.106
5893 C 59.0025 100.4 72.6102 C.3 0 **** -0.053
5894 C 60.1709 99.4607 72.2261 C.3 0 **** -0.053
5895 C 60.0576 99.0525 70.7265 C.3 0 **** 0.054
5896 O 58.7867 99.3468 70.1644 O.3 0 **** -0.32
5897 C 60.2087 98.2121 73.1559 C.3 0 **** -0.053
5898 C 59.8142 98.5515 74.644 C.3 0 **** 0.107
5899 C 60.028 100.033 74.9272 C.3 0 **** -0.106
5900 C 59.1155 100.921 74.0646 C.3 0 **** -0.106
5901 O 60.5548 97.8232 75.6296 O.3 0 **** -0.32
5902 C 60.6975 96.4646 75.2457 C.3 0 **** 0.107
5903 C 61.7846 96.4114 74.1392 C.3 0 **** -0.053
5904 C 61.5946 97.5395 73.0928 C.3 0 **** -0.106
5905 C 61.9462 95.0743 73.4624 C.2 0 **** 0
5906 C 60.673 94.2563 73.2984 C.3 0 **** 0
5907 C 59.6516 94.3834 74.428 C.3 0 **** 0
5908 C 59.363 95.7931 74.9291 C.3 0 **** -0.053
5909 C 58.3887 93.5698 74.2258 C.3 0 **** 0
5910 C 58.7254 92.1066 73.9598 C.3 0 **** 0
5911 C 59.7088 92.0335 72.7323 C.3 0 **** 0.16
5912 C 60.9853 92.813 72.9588 C.3 0 **** 0
5913 C 62.0393 92.6181 71.8346 C.3 0 **** -0.106
5914 C 63.3212 93.1851 72.4256 C.3 0 **** -0.106
5915 C 63.1297 94.5647 73.0457 C.2 0 **** -0.1268
5916 O 59.9354 90.7702 72.0686 O.3 0 **** -0.32
5917 C 59.2487 89.7049 72.6901 C.3 0 **** 0.16
5918 C 57.7385 89.9485 73.02 C.3 0 **** 0
5919 C 57.4228 91.3056 73.6978 C.3 0 **** 0
5920 C 58.4155 95.717 76.098 C.2 0 **** 0
5921 C 57.0559 95.2272 75.6858 C.3 0 **** -0.053
5922 C 57.3257 93.7381 75.3253 C.3 0 **** 0
5923 C 55.9592 95.2477 76.7274 C.2 0 **** 0
5924 C 56.3213 95.3653 78.0317 C.2 0 **** 0
5925 C 57.744 95.6487 78.4915 C.3 0 **** -0.106
5926 C 58.7384 95.9088 77.372 C.2 0 **** -0.1268
5927 C 55.2784 95.4239 79.1238 C.3 0 **** -0.106
5928 C 54.1048 94.5317 78.7464 C.3 0 **** -0.106
5929 C 53.7001 94.8209 77.3113 C.2 0 **** 0
5930 C 54.6359 95.1785 76.3735 C.2 0 **** 0
5931 C 54.2016 95.4017 74.9372 C.3 0 **** -0.106
5932 C 52.7024 95.6068 74.7741 C.3 0 **** -0.053
5933 C 51.9504 94.4811 75.5044 C.3 0 **** -0.106
5934 C 52.2399 94.5619 77.0072 C.3 0 **** -0.106
5935 C 56.4987 91.3954 74.9189 C.3 0 **** 0.147
5936 C 56.0746 92.8448 75.106 C.3 0 **** -0.053
5937 C 57.0086 88.7442 73.6249 C.3 0 **** 0
5938 C 55.5349 88.9536 73.9948 C.3 0 **** 0.147
5939 S 54.9913 90.3812 74.9023 S.3 0 **** -0.294
5940 C 54.8181 87.7197 74.4686 C.3 0 **** -0.053
5941 C 54.9908 86.6142 73.4184 C.3 0 **** 0
5942 C 56.5109 86.3183 73.1199 C.3 0 **** 0
5943 C 57.1983 87.5956 72.5952 C.3 0 **** 0
5944 C 56.5987 85.2104 72.0801 C.3 0 **** 0
5945 C 55.9194 83.9641 72.6119 C.3 0 **** 0
5946 C 54.3946 84.191 72.988 C.3 0 **** 0
5947 C 54.2934 85.3599 74.0351 C.3 0 **** -0.053
5948 C 53.8774 82.8731 73.6301 C.3 0 **** 0
5949 C 53.8405 81.8335 72.531 C.3 0 **** 0.16
5950 C 55.2024 81.625 71.8619 C.3 0 **** 0
5951 C 56.2184 82.7289 71.8085 C.3 0 **** 0
5952 C 58.6681 87.3885 72.1419 C.3 0 **** 0
5953 C 59.3263 88.6573 71.6093 C.3 0 **** -0.053
5954 C 57.9487 85.0194 71.3538 C.3 0 **** 0
5955 C 59.094 86.0139 71.5592 C.3 0 **** 0
5956 C 57.2801 82.7118 70.7088 C.3 0 **** 0
5957 C 58.4711 83.6001 71.114 C.3 0 **** 0
5958 C 55.5769 80.268 71.2652 C.3 0 **** 0
5959 C 56.6654 80.392 70.153 C.3 0 **** 0
5960 C 57.8617 81.2865 70.5262 C.3 0 **** 0
5961 O 53.2216 80.6726 73.0415 O.3 0 **** -0.32
5962 C 51.8381 80.9426 72.8189 C.3 0 **** 0.107
5963 C 51.4424 82.3133 73.4572 C.3 0 **** -0.053
5964 C 52.5405 82.7893 74.4061 C.3 0 **** 0.107
5965 C 50.0974 82.2012 74.1898 C.3 0 **** -0.106
5966 C 49.1277 81.3235 73.3774 C.3 0 **** -0.106
5967 C 49.5877 79.8541 73.395 C.3 0 **** 0.134
5968 C 51.1356 79.7368 73.407 C.3 0 **** -0.053
5969 C 51.6314 78.4456 72.7097 C.3 0 **** -0.106
5970 C 50.6505 77.3094 72.9695 C.3 0 **** -0.106
5971 C 49.2347 77.6684 72.4241 C.3 0 **** 0.081
5972 N 48.9838 79.1039 72.3124 N.3 0 **** -0.727
5973 C 60.1468 85.9581 70.4199 C.3 0 **** 0.16
5974 C 60.6725 84.5358 70.3054 C.3 0 **** 0.16
5975 C 59.528 83.6432 69.9196 C.3 0 **** 0
5976 O 61.739 84.3705 69.3954 O.3 0 **** -0.32
5977 C 62.7384 85.3535 69.643 C.3 0 **** 0.107
5978 C 62.1329 86.7157 69.4974 C.3 0 **** 0.107
5979 O 61.2142 86.8821 70.5643 O.3 0 **** -0.32
5980 C 61.4529 86.9134 68.1178 C.3 0 **** -0.106
5981 C 62.1125 86.0347 67.0163 C.3 0 **** -0.106
5982 C 63.6119 85.8424 67.3188 C.3 0 **** -0.106
5983 C 63.8456 85.0834 68.6557 C.3 0 **** -0.106
5984 C 58.937 81.2672 69.3504 C.3 0 **** 0
5985 C 60.1213 82.207 69.7435 C.3 0 **** -0.053
5986 C 57.2257 78.9902 69.8622 C.3 0 **** 0
5987 C 58.335 79.0108 68.7907 C.3 0 **** 0.16
5988 C 59.4919 79.8758 69.1053 C.3 0 **** -0.053
5989 C 55.9915 78.1236 69.3937 C.3 0 **** 0
5990 C 54.89 78.0688 70.5293 C.3 0 **** 0
5991 C 54.3549 79.4998 70.692 C.3 0 **** -0.053
5992 O 58.8236 77.7696 68.3988 O.3 0 **** -0.32
5993 C 57.7292 76.8908 68.1623 C.3 0 **** 0.16
5994 C 56.6277 76.7405 69.2946 C.3 0 **** 0
5995 C 53.7139 77.0879 70.2648 C.3 0 **** -0.053
5996 C 54.2739 75.7303 69.8455 C.3 0 **** -0.053
5997 C 55.4931 75.8082 68.852 C.3 0 **** 0
5998 C 53.2601 74.9713 69.0593 C.3 0 **** -0.053
5999 C 51.8831 75.158 69.6393 C.3 0 **** -0.106
6000 C 51.4401 76.6278 69.3867 C.3 0 **** -0.106
6001 C 52.6494 77.5769 69.2592 C.3 0 **** -0.106
6002 C 56.0917 74.4324 68.6782 C.3 0 **** 0
6003 C 57.3343 74.4121 67.7395 C.3 0 **** 0
6004 C 58.3429 75.551 67.8618 C.3 0 **** 0
6005 C 53.7764 73.538 69.1553 C.3 0 **** 0
6006 C 55.0495 73.4034 68.2999 C.3 0 **** 0
6007 C 52.3016 95.7737 73.2854 C.3 0 **** -0.053
6008 C 52.3536 94.4575 72.4958 C.3 0 **** -0.159
6009 C 50.916 96.4158 73.15 C.3 0 **** -0.159
6010 O 52.1478 83.9786 75.0782 O.3 0 **** -0.57
6011 C 59.8079 75.4211 67.3572 C.3 0 **** -0.053
6012 C 60.093 74.2189 66.4518 C.3 0 **** -0.053
6013 C 59.3882 72.9637 66.9969 C.3 0 **** 0
6014 C 57.8418 73.1168 67.1341 C.3 0 **** 0
6015 C 56.9696 71.9229 67.4802 C.3 0 **** 0
6016 C 57.5259 70.5642 67.1705 C.3 0 **** 0
6017 C 58.9045 70.5022 66.4662 C.3 0 **** 0
6018 C 59.6977 71.7743 66.0822 C.3 0 **** -0.053
6019 C 59.3982 69.1615 65.9401 C.3 0 **** -0.053
6020 C 58.4161 67.9695 65.9435 C.3 0 **** -0.053
6021 C 57.1685 68.0542 66.8761 C.3 0 **** 0
6022 C 56.4894 69.4488 66.8897 C.3 0 **** 0
6023 C 55.3017 69.5175 67.9272 C.3 0 **** 0
6024 C 54.6415 70.9478 67.9086 C.3 0 **** 0
6025 C 55.6777 72.0215 68.2992 C.3 0 **** 0
6026 C 54.2508 68.4196 67.5663 C.3 0 **** 0
6027 C 54.9645 67.0167 67.5884 C.3 0 **** -0.053
6028 C 56.1354 66.9498 66.5889 C.3 0 **** -0.053
6029 C 52.7462 72.4561 68.7705 C.3 0 **** -0.053
6030 C 53.4726 71.0489 68.9692 C.3 0 **** 0
6031 C 53.0574 68.4538 68.6259 C.3 0 **** 0.02
6032 C 52.4295 69.8873 68.7426 C.3 0 **** 0
6033 C 51.1878 70.0801 69.6452 C.3 0 **** -0.106
6034 C 50.7856 68.7591 70.2381 C.3 0 **** -0.106
6035 C 50.6956 67.6991 69.1462 C.3 0 **** -0.086
6036 C 51.9316 67.4579 68.3604 C.2 0 **** 0.379
6037 O 52.0141 66.4806 67.6363 O.2 0 **** -0.419
6038 H 56.8149 98.9465 70.4196 H 0 **** 0.053
6039 H 57.8804 97.7816 71.2001 H 0 **** 0.053
6040 H 56.8461 100.409 72.2953 H 0 **** 0.053
6041 H 57.4114 98.9885 73.1585 H 0 **** 0.053
6042 H 59.0406 101.261 71.9231 H 0 **** 0.053
6043 H 61.1168 100.008 72.3942 H 0 **** 0.053
6044 H 60.301 97.9851 70.585 H 0 **** 0.053
6045 H 60.782 99.6158 70.1279 H 0 **** 0.053
6046 H 59.479 97.4973 72.7376 H 0 **** 0.053
6047 H 58.737 98.3509 74.7907 H 0 **** 0.053
6048 H 61.0934 100.261 74.7337 H 0 **** 0.053
6049 H 59.8632 100.216 76.001 H 0 **** 0.053
6050 H 59.5005 101.95 74.0706 H 0 **** 0.053
6051 H 58.117 100.961 74.5226 H 0 **** 0.053
6052 H 61.1334 95.9515 76.1053 H 0 **** 0.053
6053 H 62.7418 96.6033 74.6369 H 0 **** 0.053
6054 H 61.8076 97.2112 72.0518 H 0 **** 0.053
6055 H 62.3382 98.3235 73.3208 H 0 **** 0.053
6056 H 58.8207 96.3206 74.1296 H 0 **** 0.053
6057 H 62.1477 91.5409 71.5996 H 0 **** 0.053
6058 H 61.7291 93.1267 70.898 H 0 **** 0.053
6059 H 64.1186 93.2039 71.6787 H 0 **** 0.053
6060 H 63.6447 92.5058 73.2358 H 0 **** 0.053
6061 H 64.0426 95.1466 73.1264 H 0 **** 0.1268
6062 H 56.7374 95.7737 74.7654 H 0 **** 0.053
6063 H 58.121 94.7989 79.1353 H 0 **** 0.053
6064 H 57.734 96.5579 79.1575 H 0 **** 0.053
6065 H 59.7308 96.2293 77.6751 H 0 **** 0.1268
6066 H 55.7038 95.1405 80.111 H 0 **** 0.053
6067 H 54.945 96.4739 79.2069 H 0 **** 0.053
6068 H 53.2547 94.673 79.443 H 0 **** 0.053
6069 H 54.4027 93.4683 78.8214 H 0 **** 0.053
6070 H 54.7129 96.2967 74.5526 H 0 **** 0.053
6071 H 54.5287 94.5624 74.2934 H 0 **** 0.053
6072 H 52.4496 96.5603 75.2821 H 0 **** 0.053
6073 H 52.2866 93.5063 75.1162 H 0 **** 0.053
6074 H 50.8661 94.535 75.3312 H 0 **** 0.053
6075 H 51.895 93.6283 77.5099 H 0 **** 0.053
6076 H 51.6425 95.3919 77.4472 H 0 **** 0.053
6077 H 55.327 92.9033 75.97 H 0 **** 0.053
6078 H 53.7314 87.8603 74.7495 H 0 **** 0.053
6079 H 53.2007 85.6486 74.1533 H 0 **** 0.053
6080 H 60.4143 88.5402 71.3306 H 0 **** 0.053
6081 H 51.6591 80.969 71.7307 H 0 **** 0.053
6082 H 51.2999 83.0647 72.6531 H 0 **** 0.053
6083 H 52.7125 82.0122 75.138 H 0 **** 0.053
6084 H 50.2575 81.7435 75.1903 H 0 **** 0.053
6085 H 49.6798 83.217 74.3759 H 0 **** 0.053
6086 H 49.1256 81.7045 72.3431 H 0 **** 0.053
6087 H 48.0941 81.4036 73.749 H 0 **** 0.053
6088 H 49.226 79.4146 74.3385 H 0 **** 0.053
6089 H 51.4701 79.7012 74.4643 H 0 **** 0.053
6090 H 51.6472 78.6286 71.6252 H 0 **** 0.053
6091 H 52.6607 78.1997 73.0251 H 0 **** 0.053
6092 H 50.6154 77.1443 74.0617 H 0 **** 0.053
6093 H 51.0086 76.3613 72.5331 H 0 **** 0.053
6094 H 48.4679 77.2358 73.0866 H 0 **** 0.053
6095 H 49.0753 77.1991 71.438 H 0 **** 0.053
6096 H 49.3342 79.4541 71.443 H 0 **** 0.353
6097 H 63.0715 85.2312 70.6733 H 0 **** 0.053
6098 H 62.9067 87.4711 69.6064 H 0 **** 0.053
6099 H 60.3697 86.6703 68.1499 H 0 **** 0.053
6100 H 61.485 87.9792 67.8077 H 0 **** 0.053
6101 H 61.9615 86.4817 66.0127 H 0 **** 0.053
6102 H 61.6167 85.0437 66.983 H 0 **** 0.053
6103 H 64.0664 86.8451 67.399 H 0 **** 0.053
6104 H 64.1203 85.3222 66.4867 H 0 **** 0.053
6105 H 64.8485 85.3158 69.0592 H 0 **** 0.053
6106 H 63.8333 83.9873 68.4562 H 0 **** 0.053
6107 H 60.8908 82.1874 68.8969 H 0 **** 0.053
6108 H 60.2906 79.8953 68.3345 H 0 **** 0.053
6109 H 53.5094 79.4536 71.4349 H 0 **** 0.053
6110 H 53.2327 76.9904 71.2285 H 0 **** 0.053
6111 H 54.5846 75.1892 70.7605 H 0 **** 0.053
6112 H 53.2368 75.2833 67.9935 H 0 **** 0.053
6113 H 51.9272 74.9456 70.7243 H 0 **** 0.053
6114 H 51.1154 74.4766 69.2122 H 0 **** 0.053
6115 H 50.7966 76.9726 70.2208 H 0 **** 0.053
6116 H 50.8122 76.6774 68.4764 H 0 **** 0.053
6117 H 52.3342 78.6201 69.4418 H 0 **** 0.053
6118 H 53.0671 77.5478 68.2444 H 0 **** 0.053
6119 H 53.029 96.4704 72.8271 H 0 **** 0.053
6120 H 52.1774 94.637 71.4231 H 0 **** 0.053
6121 H 51.5792 93.7576 72.85 H 0 **** 0.053
6122 H 53.3275 93.951 72.5899 H 0 **** 0.053
6123 H 50.876 97.3902 73.6625 H 0 **** 0.053
6124 H 50.1384 95.7722 73.5905 H 0 **** 0.053
6125 H 50.6575 96.5829 72.0931 H 0 **** 0.053
6126 H 52.8829 84.2085 75.6433 H 0 **** 0.41
6127 H 60.3421 76.3854 67.1259 H 0 **** 0.053
6128 H 61.198 74.0656 66.305 H 0 **** 0.053
6129 H 60.795 71.5793 65.9353 H 0 **** 0.053
6130 H 60.4229 69.0811 65.4961 H 0 **** 0.053
6131 H 58.859 66.9583 65.7633 H 0 **** 0.053
6132 H 54.256 66.1674 67.3934 H 0 **** 0.053
6133 H 56.6174 65.946 66.5401 H 0 **** 0.053
6134 H 51.8118 72.5155 69.4378 H 0 **** 0.053
6135 H 51.3728 70.8314 70.4329 H 0 **** 0.053
6136 H 50.4354 70.4817 68.9683 H 0 **** 0.053
6137 H 49.8278 68.855 70.7465 H 0 **** 0.053
6138 H 51.5303 68.4632 71.0047 H 0 **** 0.053
6139 H 49.9692 67.9839 68.3809 H 0 **** 0.053
6140 H 50.4754 66.6922 69.4938 H 0 **** 0.053
6141 C 68.7378 81.1723 8.90606 C.3 0 **** 0.054
6142 C 69.3923 81.038 10.3113 C.3 0 **** -0.106
6143 C 70.6095 80.0727 10.2717 C.3 0 **** -0.053
6144 C 70.258 78.8803 9.34998 C.3 0 **** -0.053
6145 C 69.8918 79.3955 7.92566 C.3 0 **** 0.054
6146 O 69.6474 80.7943 7.88591 O.3 0 **** -0.32
6147 C 69.108 78.0261 9.96066 C.3 0 **** -0.053
6148 C 69.1999 77.9184 11.5307 C.3 0 **** 0.107
6149 C 70.6249 78.1844 12.0005 C.3 0 **** -0.106
6150 C 71.0795 79.6171 11.6757 C.3 0 **** -0.106
6151 O 68.8142 76.6437 12.0564 O.3 0 **** -0.32
6152 C 67.6535 76.1611 11.3982 C.3 0 **** 0.107
6153 C 68.0975 75.6448 10.0035 C.3 0 **** -0.053
6154 C 69.0785 76.627 9.31315 C.3 0 **** -0.106
6155 C 66.9745 75.2661 9.07217 C.2 0 **** 0
6156 C 65.7056 76.0986 9.19116 C.3 0 **** 0
6157 C 65.3552 76.578 10.5992 C.3 0 **** 0
6158 C 66.4972 77.1584 11.4242 C.3 0 **** -0.053
6159 C 64.0961 77.4181 10.6802 C.3 0 **** 0
6160 C 62.9173 76.6873 10.0465 C.3 0 **** 0
6161 C 63.3041 76.2966 8.57094 C.3 0 **** 0.16
6162 C 64.5376 75.4236 8.50101 C.3 0 **** 0
6163 C 64.8396 74.8893 7.07419 C.3 0 **** -0.106
6164 C 65.8694 73.7926 7.29946 C.3 0 **** -0.106
6165 C 67.0206 74.2342 8.19638 C.2 0 **** -0.1268
6166 O 62.2747 75.8871 7.64348 O.3 0 **** -0.32
6167 C 60.9995 75.8305 8.24575 C.3 0 **** 0.16
6168 C 60.5783 77.0724 9.09978 C.3 0 **** 0
6169 C 61.6552 77.5884 10.0878 C.3 0 **** 0
6170 C 65.9919 77.4846 12.8056 C.2 0 **** 0
6171 C 64.9935 78.6076 12.7861 C.3 0 **** -0.053
6172 C 63.7667 77.9598 12.0822 C.3 0 **** 0
6173 C 64.5178 79.1446 14.1179 C.2 0 **** 0
6174 C 64.7308 78.3848 15.224 C.2 0 **** 0
6175 C 65.5667 77.113 15.2276 C.3 0 **** -0.106
6176 C 66.257 76.7973 13.9108 C.2 0 **** -0.1268
6177 C 64.3106 78.8712 16.5916 C.3 0 **** -0.106
6178 C 63.0233 79.6733 16.4663 C.3 0 **** -0.106
6179 C 63.166 80.6714 15.3303 C.2 0 **** 0
6180 C 63.9143 80.3721 14.2194 C.2 0 **** 0
6181 C 63.9852 81.3709 13.0797 C.3 0 **** -0.106
6182 C 63.5505 82.7768 13.4678 C.3 0 **** -0.053
6183 C 62.1892 82.7124 14.1806 C.3 0 **** -0.106
6184 C 62.3312 81.9249 15.4875 C.3 0 **** -0.106
6185 C 61.3083 77.9368 11.5411 C.3 0 **** 0.147
6186 C 62.4406 78.7663 12.1285 C.3 0 **** -0.053
6187 C 59.1593 77.0066 9.67528 C.3 0 **** 0
6188 C 58.721 78.1887 10.5492 C.3 0 **** 0.147
6189 S 59.7593 78.8392 11.8361 S.3 0 **** -0.294
6190 C 57.2841 78.1536 10.9918 C.3 0 **** -0.053
6191 C 56.3892 77.9939 9.75539 C.3 0 **** 0
6192 C 56.7661 76.7127 8.91704 C.3 0 **** 0
6193 C 58.231 76.8102 8.44406 C.3 0 **** 0
6194 C 55.8328 76.6202 7.71864 C.3 0 **** 0
6195 C 54.3993 76.5254 8.20097 C.3 0 **** 0
6196 C 53.9549 77.7542 9.10041 C.3 0 **** 0
6197 C 54.9381 77.8783 10.3212 C.3 0 **** -0.053
6198 C 52.5205 77.4524 9.61773 C.3 0 **** 0
6199 C 51.5991 77.5137 8.41916 C.3 0 **** 0.16
6200 C 52.0027 76.5449 7.30351 C.3 0 **** 0
6201 C 53.43 76.1133 7.12794 C.3 0 **** 0
6202 C 58.6728 75.6632 7.49643 C.3 0 **** 0
6203 C 60.1183 75.7858 7.0239 C.3 0 **** -0.053
6204 C 56.2484 75.6852 6.56143 C.3 0 **** 0
6205 C 57.6226 75.0114 6.55651 C.3 0 **** 0
6206 C 53.8964 75.6329 5.75357 C.3 0 **** 0
6207 C 55.1864 74.8039 5.89785 C.3 0 **** 0
6208 C 50.9465 75.9441 6.37513 C.3 0 **** 0
6209 C 51.5526 75.4963 5.00723 C.3 0 **** 0
6210 C 52.8516 74.6771 5.12186 C.3 0 **** 0
6211 O 50.2686 77.4077 8.87698 O.3 0 **** -0.32
6212 C 49.9436 78.7628 9.18413 C.3 0 **** 0.107
6213 C 51.0008 79.3661 10.1643 C.3 0 **** -0.053
6214 C 51.859 78.2543 10.7643 C.3 0 **** 0.107
6215 C 50.3121 80.1817 11.2685 C.3 0 **** -0.106
6216 C 49.139 80.9842 10.6763 C.3 0 **** -0.106
6217 C 47.9966 80.0388 10.2605 C.3 0 **** 0.134
6218 C 48.5352 78.6815 9.73395 C.3 0 **** -0.053
6219 C 47.5938 78.0456 8.68105 C.3 0 **** -0.106
6220 C 46.1437 78.3504 9.03401 C.3 0 **** -0.106
6221 C 45.8972 79.8897 9.07072 C.3 0 **** 0.081
6222 N 47.1003 80.6814 9.32067 N.3 0 **** -0.727
6223 C 58.0512 74.5355 5.14247 C.3 0 **** 0.16
6224 C 56.9834 73.6024 4.59317 C.3 0 **** 0.16
6225 C 55.7083 74.3828 4.45027 C.3 0 **** 0
6226 O 57.3105 72.9868 3.36566 O.3 0 **** -0.32
6227 C 58.6118 72.4156 3.44635 C.3 0 **** 0.107
6228 C 59.6006 73.4928 3.77084 C.3 0 **** 0.107
6229 O 59.3312 73.9245 5.09408 O.3 0 **** -0.32
6230 C 59.5437 74.668 2.76073 C.3 0 **** -0.106
6231 C 59.0595 74.2021 1.35753 C.3 0 **** -0.106
6232 C 59.5009 72.7475 1.10048 C.3 0 **** -0.106
6233 C 58.8632 71.7556 2.11416 C.3 0 **** -0.106
6234 C 53.324 74.2104 3.67322 C.3 0 **** 0
6235 C 54.6583 73.4111 3.81868 C.3 0 **** -0.053
6236 C 50.5237 74.6085 4.2878 C.3 0 **** 0
6237 C 51.0431 74.088 2.93165 C.3 0 **** 0.16
6238 C 52.301 73.3138 2.99961 C.3 0 **** -0.053
6239 C 49.2377 75.5065 4.10265 C.3 0 **** 0
6240 C 48.6886 75.9834 5.50873 C.3 0 **** 0
6241 C 49.7588 76.9092 6.10738 C.3 0 **** -0.053
6242 O 50.1339 73.36 2.17241 O.3 0 **** -0.32
6243 C 48.8869 74.0462 2.15328 C.3 0 **** 0.16
6244 C 48.2512 74.4888 3.53831 C.3 0 **** 0
6245 C 47.3158 76.7117 5.47152 C.3 0 **** -0.053
6246 C 46.3317 75.8901 4.64142 C.3 0 **** -0.053
6247 C 46.9461 75.2677 3.33195 C.3 0 **** 0
6248 C 45.2463 76.7627 4.11025 C.3 0 **** -0.053
6249 C 44.8207 77.7753 5.14028 C.3 0 **** -0.106
6250 C 45.9786 78.7967 5.33152 C.3 0 **** -0.106
6251 C 47.3499 78.1783 4.98973 C.3 0 **** -0.106
6252 C 45.953 74.3132 2.7123 C.3 0 **** 0
6253 C 46.4861 73.6142 1.42663 C.3 0 **** 0
6254 C 47.9372 73.1408 1.41841 C.3 0 **** 0
6255 C 44.1574 75.7531 3.75641 C.3 0 **** 0
6256 C 44.5964 74.9529 2.5165 C.3 0 **** 0
6257 C 63.5857 83.7467 12.2583 C.3 0 **** -0.053
6258 C 62.4395 83.5116 11.2635 C.3 0 **** -0.159
6259 C 63.5946 85.2096 12.7169 C.3 0 **** -0.159
6260 O 52.7522 78.7763 11.7387 O.3 0 **** -0.57
6261 C 48.4489 72.0465 0.439133 C.3 0 **** -0.053
6262 C 47.508 71.7018 -0.719909 C.3 0 **** -0.053
6263 C 46.0551 71.618 -0.216111 C.3 0 **** 0
6264 C 45.5428 72.9308 0.454335 C.3 0 **** 0
6265 C 44.0819 73.0904 0.83773 C.3 0 **** 0
6266 C 43.0914 72.2264 0.113069 C.3 0 **** 0
6267 C 43.6348 71.3152 -1.01619 C.3 0 **** 0
6268 C 45.136 71.2601 -1.38932 C.3 0 **** -0.053
6269 C 42.6421 70.5878 -1.91278 C.3 0 **** -0.053
6270 C 41.1504 70.9757 -1.81206 C.3 0 **** -0.053
6271 C 40.6737 71.7048 -0.517275 C.3 0 **** 0
6272 C 41.6566 72.7951 -0.0139685 C.3 0 **** 0
6273 C 41.1864 73.4279 1.35379 C.3 0 **** 0
6274 C 42.21 74.5279 1.8276 C.3 0 **** 0
6275 C 43.6042 73.9051 2.04508 C.3 0 **** 0
6276 C 39.7632 74.0426 1.16399 C.3 0 **** 0
6277 C 38.7867 72.9059 0.681376 C.3 0 **** -0.053
6278 C 39.2492 72.2743 -0.646183 C.3 0 **** -0.053
6279 C 42.758 76.3652 3.54078 C.3 0 **** -0.053
6280 C 41.7768 75.1492 3.21588 C.3 0 **** 0
6281 C 39.2593 74.6596 2.54713 C.3 0 **** 0.02
6282 C 40.2944 75.6819 3.13577 C.3 0 **** 0
6283 C 39.9196 76.4589 4.42021 C.3 0 **** -0.106
6284 C 38.5319 76.078 4.85295 C.3 0 **** -0.106
6285 C 37.5698 76.174 3.6744 C.3 0 **** -0.086
6286 C 37.8938 75.3395 2.49018 C.2 0 **** 0.379
6287 O 37.0645 75.1806 1.61099 O.2 0 **** -0.419
6288 H 68.4515 82.2134 8.70406 H 0 **** 0.053
6289 H 67.812 80.579 8.84979 H 0 **** 0.053
6290 H 69.7279 82.0187 10.702 H 0 **** 0.053
6291 H 68.6442 80.6796 11.0427 H 0 **** 0.053
6292 H 71.4307 80.625 9.78676 H 0 **** 0.053
6293 H 71.1442 78.2215 9.29287 H 0 **** 0.053
6294 H 69.0293 78.8442 7.51239 H 0 **** 0.053
6295 H 70.7265 79.2227 7.23739 H 0 **** 0.053
6296 H 68.1687 78.5347 9.68287 H 0 **** 0.053
6297 H 68.5627 78.6976 11.9879 H 0 **** 0.053
6298 H 71.2831 77.443 11.5093 H 0 **** 0.053
6299 H 70.6843 77.9821 13.0817 H 0 **** 0.053
6300 H 72.1744 79.6747 11.7469 H 0 **** 0.053
6301 H 70.6824 80.3009 12.4392 H 0 **** 0.053
6302 H 67.3401 75.2726 11.9501 H 0 **** 0.053
6303 H 68.6543 74.7177 10.1801 H 0 **** 0.053
6304 H 68.9053 76.7214 8.21868 H 0 **** 0.053
6305 H 70.093 76.2051 9.42362 H 0 **** 0.053
6306 H 66.7773 78.1192 10.9663 H 0 **** 0.053
6307 H 63.9149 74.4841 6.61786 H 0 **** 0.053
6308 H 65.2041 75.6992 6.40855 H 0 **** 0.053
6309 H 66.2454 73.4108 6.34714 H 0 **** 0.053
6310 H 65.3598 72.9557 7.8118 H 0 **** 0.053
6311 H 67.9273 73.6495 8.07629 H 0 **** 0.1268
6312 H 65.3884 79.4326 12.1453 H 0 **** 0.053
6313 H 64.9305 76.2305 15.5361 H 0 **** 0.053
6314 H 66.365 77.2075 16.0175 H 0 **** 0.053
6315 H 66.9519 75.9627 13.9204 H 0 **** 0.1268
6316 H 64.1969 78.0289 17.3081 H 0 **** 0.053
6317 H 65.1219 79.5141 16.9778 H 0 **** 0.053
6318 H 62.7725 80.1785 17.4201 H 0 **** 0.053
6319 H 62.1798 78.9946 16.2356 H 0 **** 0.053
6320 H 65.0248 81.4206 12.7229 H 0 **** 0.053
6321 H 63.3821 81.0259 12.2175 H 0 **** 0.053
6322 H 64.293 83.1535 14.2013 H 0 **** 0.053
6323 H 61.4577 82.212 13.5264 H 0 **** 0.053
6324 H 61.793 83.7153 14.3917 H 0 **** 0.053
6325 H 61.3222 81.6751 15.8909 H 0 **** 0.053
6326 H 62.8201 82.5723 16.2499 H 0 **** 0.053
6327 H 62.1516 79.0901 13.1871 H 0 **** 0.053
6328 H 56.9484 79.0169 11.6414 H 0 **** 0.053
6329 H 54.7399 78.8645 10.8499 H 0 **** 0.053
6330 H 60.4757 74.9283 6.38183 H 0 **** 0.053
6331 H 49.9303 79.339 8.24363 H 0 **** 0.053
6332 H 51.652 80.0744 9.61143 H 0 **** 0.053
6333 H 51.2004 77.5391 11.2371 H 0 **** 0.053
6334 H 49.9282 79.4936 12.053 H 0 **** 0.053
6335 H 51.0536 80.8435 11.7719 H 0 **** 0.053
6336 H 49.5228 81.5277 9.79716 H 0 **** 0.053
6337 H 48.7659 81.7434 11.3817 H 0 **** 0.053
6338 H 47.4134 79.8203 11.1697 H 0 **** 0.053
6339 H 48.6055 77.9823 10.5925 H 0 **** 0.053
6340 H 47.804 78.5146 7.70848 H 0 **** 0.053
6341 H 47.7894 76.9633 8.58263 H 0 **** 0.053
6342 H 45.9413 77.9012 10.0234 H 0 **** 0.053
6343 H 45.4475 77.8597 8.33246 H 0 **** 0.053
6344 H 45.1611 80.123 9.8567 H 0 **** 0.053
6345 H 45.4382 80.2252 8.12417 H 0 **** 0.053
6346 H 47.5905 80.846 8.46408 H 0 **** 0.353
6347 H 58.6042 71.695 4.26379 H 0 **** 0.053
6348 H 60.606 73.0799 3.75592 H 0 **** 0.053
6349 H 58.8694 75.4802 3.10589 H 0 **** 0.053
6350 H 60.5355 75.1582 2.66462 H 0 **** 0.053
6351 H 59.4369 74.8801 0.565268 H 0 **** 0.053
6352 H 57.9538 74.2628 1.3052 H 0 **** 0.053
6353 H 60.5983 72.7081 1.21213 H 0 **** 0.053
6354 H 59.2697 72.4407 0.0641686 H 0 **** 0.053
6355 H 59.4793 70.841 2.19613 H 0 **** 0.053
6356 H 57.8698 71.4318 1.72727 H 0 **** 0.053
6357 H 54.9911 73.0765 2.77639 H 0 **** 0.053
6358 H 52.6788 72.9404 2.02466 H 0 **** 0.053
6359 H 49.3376 77.3221 7.06735 H 0 **** 0.053
6360 H 46.9929 76.7138 6.5038 H 0 **** 0.053
6361 H 45.9387 75.0757 5.28102 H 0 **** 0.053
6362 H 45.5563 77.306 3.19236 H 0 **** 0.053
6363 H 44.6086 77.2445 6.08789 H 0 **** 0.053
6364 H 43.8961 78.3322 4.87318 H 0 **** 0.053
6365 H 45.9935 79.1511 6.38182 H 0 **** 0.053
6366 H 45.7911 79.6935 4.70998 H 0 **** 0.053
6367 H 48.1589 78.7651 5.46076 H 0 **** 0.053
6368 H 47.5328 78.201 3.90771 H 0 **** 0.053
6369 H 64.538 83.5676 11.7235 H 0 **** 0.053
6370 H 62.566 84.1369 10.3652 H 0 **** 0.053
6371 H 61.4683 83.769 11.7171 H 0 **** 0.053
6372 H 62.3834 82.463 10.93 H 0 **** 0.053
6373 H 64.4451 85.4123 13.387 H 0 **** 0.053
6374 H 62.6708 85.4574 13.2625 H 0 **** 0.053
6375 H 63.6743 85.894 11.8584 H 0 **** 0.053
6376 H 53.2469 78.0258 12.0622 H 0 **** 0.41
6377 H 49.5556 72.0444 0.229178 H 0 **** 0.053
6378 H 47.8352 70.7658 -1.25244 H 0 **** 0.053
6379 H 45.4221 70.3163 -1.93012 H 0 **** 0.053
6380 H 43.0137 69.866 -2.68387 H 0 **** 0.053
6381 H 40.4232 70.2913 -2.31636 H 0 **** 0.053
6382 H 37.7266 73.2616 0.577558 H 0 **** 0.053
6383 H 38.5411 71.5094 -1.04145 H 0 **** 0.053
6384 H 42.3986 76.9229 4.47976 H 0 **** 0.053
6385 H 40.652 76.283 5.2277 H 0 **** 0.053
6386 H 39.9936 77.5035 4.1218 H 0 **** 0.053
6387 H 38.2013 76.7292 5.6602 H 0 **** 0.053
6388 H 38.548 75.0453 5.25663 H 0 **** 0.053
6389 H 37.5513 77.1867 3.26359 H 0 **** 0.053
6390 H 36.5516 75.8503 3.8789 H 0 **** 0.053
6391 C 1.37564 84.7883 1.83167 C.3 0 **** 0.054
6392 C 0.889309 83.4391 1.22823 C.3 0 **** -0.106
6393 C 0.332205 82.5 2.33392 C.3 0 **** -0.053
6394 C 1.23575 82.627 3.58403 C.3 0 **** -0.053
6395 C 1.27997 84.1091 4.06315 C.3 0 **** 0.054
6396 O 0.778565 85.0213 3.09665 O.3 0 **** -0.32
6397 C 2.66411 82.078 3.29531 C.3 0 **** -0.053
6398 C 2.6495 80.814 2.35341 C.3 0 **** 0.107
6399 C 1.29036 80.1269 2.40466 C.3 0 **** -0.106
6400 C 0.168124 81.0315 1.86896 C.3 0 **** -0.106
6401 O 3.63334 79.8261 2.67942 O.3 0 **** -0.32
6402 C 4.87403 80.4394 2.99257 C.3 0 **** 0.107
6403 C 4.74569 81.0326 4.42105 C.3 0 **** -0.053
6404 C 3.39721 81.7721 4.61682 C.3 0 **** -0.106
6405 C 5.8994 81.8959 4.86326 C.2 0 **** 0
6406 C 6.56911 82.7176 3.77081 C.3 0 **** 0
6407 C 6.63553 82.0615 2.3923 C.3 0 **** 0
6408 C 5.36224 81.386 1.89816 C.3 0 **** -0.053
6409 C 7.29281 82.9125 1.32391 C.3 0 **** 0
6410 C 8.67532 83.372 1.77391 C.3 0 **** 0
6411 C 8.53156 84.1172 3.15356 C.3 0 **** 0.16
6412 C 7.91363 83.2476 4.22614 C.3 0 **** 0
6413 C 7.91657 83.9029 5.63438 C.3 0 **** -0.106
6414 C 7.58927 82.7555 6.57795 C.3 0 **** -0.106
6415 C 6.37924 81.944 6.12873 C.2 0 **** -0.1268
6416 O 9.62087 84.9271 3.64861 O.3 0 **** -0.32
6417 C 10.7511 84.8832 2.80423 C.3 0 **** 0.16
6418 C 10.4873 85.0996 1.27697 C.3 0 **** 0
6419 C 9.3039 84.2885 0.691409 C.3 0 **** 0
6420 C 5.63995 80.7152 0.577953 C.2 0 **** 0
6421 C 5.92816 81.7134 -0.50774 C.3 0 **** -0.053
6422 C 7.30944 82.2891 -0.0826801 C.3 0 **** 0
6423 C 6.07263 81.1898 -1.91947 C.2 0 **** 0
6424 C 6.28275 79.8578 -2.08669 C.2 0 **** 0
6425 C 6.21017 78.8423 -0.955667 C.3 0 **** -0.106
6426 C 5.76835 79.4075 0.384247 C.2 0 **** -0.1268
6427 C 6.40555 79.2597 -3.46902 C.3 0 **** -0.106
6428 C 7.10501 80.2525 -4.386 C.3 0 **** -0.106
6429 C 6.46711 81.6207 -4.21848 C.2 0 **** 0
6430 C 5.96832 82.022 -3.00467 C.2 0 **** 0
6431 C 5.39209 83.4181 -2.86246 C.3 0 **** -0.106
6432 C 5.05333 84.0805 -4.19006 C.3 0 **** -0.053
6433 C 6.2627 83.9786 -5.1351 C.3 0 **** -0.106
6434 C 6.54915 82.5051 -5.44438 C.3 0 **** -0.106
6435 C 9.43414 83.5226 -0.631429 C.3 0 **** 0.147
6436 C 8.04104 83.1699 -1.13162 C.3 0 **** -0.053
6437 C 11.7459 85.1199 0.402496 C.3 0 **** 0
6438 C 11.5271 85.2941 -1.10561 C.3 0 **** 0.147
6439 S 10.3118 84.3479 -1.99144 S.3 0 **** -0.294
6440 C 12.7849 85.4353 -1.91761 C.3 0 **** -0.053
6441 C 13.6289 86.5732 -1.32791 C.3 0 **** 0
6442 C 13.9511 86.3378 0.197642 C.3 0 **** 0
6443 C 12.6374 86.2439 1.00055 C.3 0 **** 0
6444 C 14.794 87.499 0.704674 C.3 0 **** 0
6445 C 16.0796 87.5765 -0.0942885 C.3 0 **** 0
6446 C 15.8424 87.76 -1.65217 C.3 0 **** 0
6447 C 14.9406 86.583 -2.17574 C.3 0 **** -0.053
6448 C 17.2341 87.6935 -2.3414 C.3 0 **** 0
6449 C 17.9889 88.9382 -1.92877 C.3 0 **** 0.16
6450 C 18.1276 89.0784 -0.409856 C.3 0 **** 0
6451 C 17.1168 88.4742 0.521598 C.3 0 **** 0
6452 C 12.8346 86.1446 2.53677 C.3 0 **** 0
6453 C 11.5251 86.071 3.31581 C.3 0 **** -0.053
6454 C 14.9047 87.6856 2.23412 C.3 0 **** 0
6455 C 14.0644 86.8331 3.18799 C.3 0 **** 0
6456 C 16.9512 89.0649 1.92198 C.3 0 **** 0
6457 C 16.2632 88.0414 2.84464 C.3 0 **** 0
6458 C 19.3366 89.79 0.198806 C.3 0 **** 0
6459 C 19.0339 90.3468 1.62658 C.3 0 **** 0
6460 C 18.3333 89.3478 2.56578 C.3 0 **** 0
6461 O 19.1911 88.9925 -2.66571 O.3 0 **** -0.32
6462 C 18.7833 89.6487 -3.86538 C.3 0 **** 0.107
6463 C 17.5723 88.8998 -4.50956 C.3 0 **** -0.053
6464 C 17.4029 87.5231 -3.87044 C.3 0 **** 0.107
6465 C 17.7573 88.7781 -6.02928 C.3 0 **** -0.106
6466 C 18.3552 90.0803 -6.59286 C.3 0 **** -0.106
6467 C 19.8173 90.2423 -6.13642 C.3 0 **** 0.134
6468 C 20.0406 89.6752 -4.70868 C.3 0 **** -0.053
6469 C 21.168 90.4199 -3.95147 C.3 0 **** -0.106
6470 C 22.2636 90.8278 -4.92794 C.3 0 **** -0.106
6471 C 21.6931 91.764 -6.03662 C.3 0 **** 0.081
6472 N 20.2562 91.6178 -6.26104 N.3 0 **** -0.727
6473 C 13.9287 87.4691 4.59749 C.3 0 **** 0.16
6474 C 15.3193 87.7122 5.16312 C.3 0 **** 0.16
6475 C 16.0192 88.7017 4.27638 C.3 0 **** 0
6476 O 15.3434 88.1639 6.50028 O.3 0 **** -0.32
6477 C 14.5141 87.3314 7.30373 C.3 0 **** 0.107
6478 C 13.1168 87.3655 6.76528 C.3 0 **** 0.107
6479 O 13.1375 86.7174 5.50447 O.3 0 **** -0.32
6480 C 12.5616 88.8095 6.65958 C.3 0 **** -0.106
6481 C 13.2067 89.7561 7.71236 C.3 0 **** -0.106
6482 C 13.5652 88.9657 8.98662 C.3 0 **** -0.106
6483 C 14.625 87.8619 8.71077 C.3 0 **** -0.106
6484 C 18.1556 89.9997 4.00886 C.3 0 **** 0
6485 C 17.4138 88.9777 4.92869 C.3 0 **** -0.053
6486 C 20.3659 90.7302 2.29219 C.3 0 **** 0
6487 C 20.1765 91.2662 3.72461 C.3 0 **** 0.16
6488 C 19.4872 90.3444 4.64998 C.3 0 **** -0.053
6489 C 21.0158 91.821 1.35266 C.3 0 **** 0
6490 C 21.2555 91.2317 -0.0977749 C.3 0 **** 0
6491 C 19.8667 90.9478 -0.690989 C.3 0 **** -0.053
6492 O 21.3255 91.7255 4.35532 O.3 0 **** -0.32
6493 C 22.0485 92.5622 3.46036 C.3 0 **** 0.16
6494 C 22.3785 92.0005 2.01413 C.3 0 **** 0
6495 C 22.0664 92.1461 -1.05822 C.3 0 **** -0.053
6496 C 23.3264 92.6339 -0.34599 C.3 0 **** -0.053
6497 C 23.1058 93.0452 1.1583 C.3 0 **** 0
6498 C 23.8134 93.9005 -0.962606 C.3 0 **** -0.053
6499 C 23.6716 93.8562 -2.46104 C.3 0 **** -0.106
6500 C 22.1564 93.8992 -2.81126 C.3 0 **** -0.106
6501 C 21.2883 93.3312 -1.66963 C.3 0 **** -0.106
6502 C 24.4423 93.3023 1.81339 C.3 0 **** 0
6503 C 24.3259 93.684 3.31906 C.3 0 **** 0
6504 C 23.3258 92.9088 4.17419 C.3 0 **** 0
6505 C 25.2622 93.9615 -0.485616 C.3 0 **** 0
6506 C 25.2834 94.2787 1.0209 C.3 0 **** 0
6507 C 4.52209 85.5243 -3.99542 C.3 0 **** -0.053
6508 C 5.62211 86.525 -3.61186 C.3 0 **** -0.159
6509 C 3.77306 86.015 -5.23991 C.3 0 **** -0.159
6510 O 16.3747 86.788 -4.52029 O.3 0 **** -0.57
6511 C 23.4285 92.8529 5.72508 C.3 0 **** -0.053
6512 C 24.4099 93.8398 6.36638 C.3 0 **** -0.053
6513 C 25.7068 93.9116 5.53842 C.3 0 **** 0
6514 C 25.4842 94.3356 4.05267 C.3 0 **** 0
6515 C 26.6627 94.6442 3.14512 C.3 0 **** 0
6516 C 27.9507 95.0298 3.81227 C.3 0 **** 0
6517 C 27.9401 95.1641 5.35585 C.3 0 **** 0
6518 C 26.6729 94.8983 6.20434 C.3 0 **** -0.053
6519 C 29.1592 95.7577 6.04817 C.3 0 **** -0.053
6520 C 30.2463 96.4162 5.17027 C.3 0 **** -0.053
6521 C 30.294 96.0291 3.65951 C.3 0 **** 0
6522 C 28.8968 95.9401 2.99119 C.3 0 **** 0
6523 C 28.9876 95.4435 1.49554 C.3 0 **** 0
6524 C 27.5496 95.3679 0.856146 C.3 0 **** 0
6525 C 26.6676 94.372 1.63673 C.3 0 **** 0
6526 C 29.899 96.4241 0.690801 C.3 0 **** 0
6527 C 31.3148 96.4692 1.37738 C.3 0 **** -0.053
6528 C 31.23 96.9383 2.84276 C.3 0 **** -0.053
6529 C 26.1541 94.9518 -1.26244 C.3 0 **** -0.053
6530 C 27.6154 94.8357 -0.631649 C.3 0 **** 0
6531 C 30.0277 95.9178 -0.817507 C.3 0 **** 0.02
6532 C 28.62 95.7083 -1.47877 C.3 0 **** 0
6533 C 28.5555 95.3228 -2.97572 C.3 0 **** -0.106
6534 C 29.9467 95.2584 -3.54022 C.3 0 **** -0.106
6535 C 30.7188 96.5222 -3.17875 C.3 0 **** -0.086
6536 C 30.8568 96.8171 -1.73048 C.2 0 **** 0.379
6537 O 31.6462 97.6659 -1.35262 O.2 0 **** -0.419
6538 H 1.09115 85.6317 1.18793 H 0 **** 0.053
6539 H 2.47416 84.8089 1.90343 H 0 **** 0.053
6540 H 0.103904 83.5927 0.462298 H 0 **** 0.053
6541 H 1.72018 82.9455 0.690706 H 0 **** 0.053
6542 H -0.658739 82.8956 2.60981 H 0 **** 0.053
6543 H 0.80751 81.9895 4.37951 H 0 **** 0.053
6544 H 2.30038 84.3983 4.3694 H 0 **** 0.053
6545 H 0.644991 84.2376 4.94668 H 0 **** 0.053
6546 H 3.21226 82.8977 2.79956 H 0 **** 0.053
6547 H 2.80454 81.1365 1.3074 H 0 **** 0.053
6548 H 1.09777 79.8442 3.45691 H 0 **** 0.053
6549 H 1.34884 79.1846 1.8372 H 0 **** 0.053
6550 H -0.80333 80.6359 2.19589 H 0 **** 0.053
6551 H 0.166821 80.9887 0.770552 H 0 **** 0.053
6552 H 5.5993 79.6279 3.07958 H 0 **** 0.053
6553 H 4.73907 80.1805 5.11003 H 0 **** 0.053
6554 H 3.49141 82.7017 5.21992 H 0 **** 0.053
6555 H 2.73915 81.1009 5.1964 H 0 **** 0.053
6556 H 4.62948 82.1803 1.68937 H 0 **** 0.053
6557 H 8.91591 84.3289 5.85189 H 0 **** 0.053
6558 H 7.1866 84.7369 5.69297 H 0 **** 0.053
6559 H 7.45392 83.1188 7.59957 H 0 **** 0.053
6560 H 8.45699 82.0701 6.58435 H 0 **** 0.053
6561 H 5.89523 81.3889 6.92622 H 0 **** 0.1268
6562 H 5.16443 82.5271 -0.464016 H 0 **** 0.053
6563 H 7.20878 78.3263 -0.831838 H 0 **** 0.053
6564 H 5.47972 78.0335 -1.24272 H 0 **** 0.053
6565 H 5.59457 78.6855 1.17677 H 0 **** 0.1268
6566 H 6.93636 78.2832 -3.44635 H 0 **** 0.053
6567 H 5.38247 79.0609 -3.83559 H 0 **** 0.053
6568 H 7.06975 79.9159 -5.44109 H 0 **** 0.053
6569 H 8.17504 80.3263 -4.11231 H 0 **** 0.053
6570 H 4.46967 83.3564 -2.26606 H 0 **** 0.053
6571 H 6.08142 84.0709 -2.2927 H 0 **** 0.053
6572 H 4.22703 83.4941 -4.64222 H 0 **** 0.053
6573 H 7.14286 84.4315 -4.65128 H 0 **** 0.053
6574 H 6.09659 84.5295 -6.07184 H 0 **** 0.053
6575 H 7.54742 82.4075 -5.93133 H 0 **** 0.053
6576 H 5.80354 82.1388 -6.18553 H 0 **** 0.053
6577 H 8.13164 82.6644 -2.15401 H 0 **** 0.053
6578 H 12.6388 85.5595 -3.03247 H 0 **** 0.053
6579 H 14.6128 86.82 -3.23779 H 0 **** 0.053
6580 H 11.6492 85.9379 4.43037 H 0 **** 0.053
6581 H 18.4957 90.6838 -3.61507 H 0 **** 0.053
6582 H 16.648 89.4933 -4.35287 H 0 **** 0.053
6583 H 18.3367 86.9878 -3.97199 H 0 **** 0.053
6584 H 18.4426 87.9316 -6.25288 H 0 **** 0.053
6585 H 16.7853 88.5266 -6.51217 H 0 **** 0.053
6586 H 17.7428 90.9148 -6.21307 H 0 **** 0.053
6587 H 18.2944 90.1157 -7.69199 H 0 **** 0.053
6588 H 20.436 89.6391 -6.8204 H 0 **** 0.053
6589 H 20.341 88.6113 -4.80372 H 0 **** 0.053
6590 H 20.7423 91.341 -3.52667 H 0 **** 0.053
6591 H 21.5494 89.8081 -3.11505 H 0 **** 0.053
6592 H 22.6724 89.9027 -5.37356 H 0 **** 0.053
6593 H 23.1082 91.3094 -4.40609 H 0 **** 0.053
6594 H 22.2128 91.5632 -6.98719 H 0 **** 0.053
6595 H 21.912 92.8187 -5.79481 H 0 **** 0.053
6596 H 19.7444 92.1807 -5.61112 H 0 **** 0.353
6597 H 14.8922 86.3127 7.2207 H 0 **** 0.053
6598 H 12.4612 86.7961 7.41909 H 0 **** 0.053
6599 H 12.731 89.2471 5.65299 H 0 **** 0.053
6600 H 11.4578 88.8211 6.78064 H 0 **** 0.053
6601 H 12.532 90.6047 7.94523 H 0 **** 0.053
6602 H 14.1275 90.2089 7.2926 H 0 **** 0.053
6603 H 12.6411 88.4837 9.3502 H 0 **** 0.053
6604 H 13.9139 89.6427 9.78772 H 0 **** 0.053
6605 H 14.5604 87.0672 9.47698 H 0 **** 0.053
6606 H 15.6426 88.3061 8.80381 H 0 **** 0.053
6607 H 17.2906 89.45 5.96356 H 0 **** 0.053
6608 H 19.3463 90.7252 5.68237 H 0 **** 0.053
6609 H 20.0246 90.6126 -1.75491 H 0 **** 0.053
6610 H 22.3495 91.4884 -1.86874 H 0 **** 0.053
6611 H 24.0831 91.8265 -0.395223 H 0 **** 0.053
6612 H 23.2641 94.789 -0.584571 H 0 **** 0.053
6613 H 24.1301 92.9191 -2.82969 H 0 **** 0.053
6614 H 24.1825 94.6904 -2.98935 H 0 **** 0.053
6615 H 21.9694 93.3133 -3.73343 H 0 **** 0.053
6616 H 21.8564 94.9389 -3.04426 H 0 **** 0.053
6617 H 20.2958 93.0382 -2.05722 H 0 **** 0.053
6618 H 21.112 94.0891 -0.895185 H 0 **** 0.053
6619 H 3.78992 85.4943 -3.16611 H 0 **** 0.053
6620 H 5.18945 87.5087 -3.36914 H 0 **** 0.053
6621 H 6.33016 86.6667 -4.44471 H 0 **** 0.053
6622 H 6.20189 86.1942 -2.73526 H 0 **** 0.053
6623 H 2.94201 85.3392 -5.49771 H 0 **** 0.053
6624 H 4.44601 86.0672 -6.11017 H 0 **** 0.053
6625 H 3.35042 87.0187 -5.07892 H 0 **** 0.053
6626 H 16.3316 85.9489 -4.06546 H 0 **** 0.41
6627 H 22.4774 92.6231 6.28328 H 0 **** 0.053
6628 H 24.6004 93.5893 7.44758 H 0 **** 0.053
6629 H 26.9028 94.6647 7.28048 H 0 **** 0.053
6630 H 29.2012 95.7938 7.16663 H 0 **** 0.053
6631 H 31.2179 96.6478 5.67386 H 0 **** 0.053
6632 H 32.0461 97.1135 0.81932 H 0 **** 0.053
6633 H 32.2262 97.0395 3.3323 H 0 **** 0.053
6634 H 26.1857 94.6932 -2.38231 H 0 **** 0.053
6635 H 28.0194 94.3691 -3.12523 H 0 **** 0.053
6636 H 27.9587 96.1167 -3.42208 H 0 **** 0.053
6637 H 29.9049 95.1417 -4.6217 H 0 **** 0.053
6638 H 30.4608 94.362 -3.13781 H 0 **** 0.053
6639 H 30.2169 97.4132 -3.56456 H 0 **** 0.053
6640 H 31.7612 96.534 -3.48923 H 0 **** 0.053
6641 C 76.9776 -1.91791 64.8015 C.3 0 **** 0.054
6642 C 76.4021 -1.69807 63.3726 C.3 0 **** -0.106
6643 C 77.5419 -1.55437 62.3259 C.3 0 **** -0.053
6644 C 78.6781 -0.711531 62.9536 C.3 0 **** -0.053
6645 C 79.1864 -1.38895 64.2618 C.3 0 **** 0.054
6646 O 78.3103 -2.39871 64.742 O.3 0 **** -0.32
6647 C 78.2071 0.749735 63.2138 C.3 0 **** -0.053
6648 C 77.2415 1.28566 62.0886 C.3 0 **** 0.107
6649 C 77.4367 0.497966 60.7988 C.3 0 **** -0.106
6650 C 77.0622 -0.983849 60.9677 C.3 0 **** -0.106
6651 O 77.4226 2.66948 61.7686 O.3 0 **** -0.32
6652 C 77.6013 3.43697 62.9488 C.3 0 **** 0.107
6653 C 79.0495 3.18488 63.4463 C.3 0 **** -0.053
6654 C 79.4235 1.68156 63.3863 C.3 0 **** -0.106
6655 C 79.3728 3.76393 64.8 C.2 0 **** 0
6656 C 78.2298 3.77804 65.8052 C.3 0 **** 0
6657 C 76.837 4.01607 65.2239 C.3 0 **** 0
6658 C 76.4817 3.23167 63.967 C.3 0 **** -0.053
6659 C 75.7197 4.00771 66.2484 C.3 0 **** 0
6660 C 76.0131 4.99135 67.3759 C.3 0 **** 0
6661 C 77.4188 4.64151 67.9933 C.3 0 **** 0.16
6662 C 78.5348 4.6936 66.9734 C.3 0 **** 0
6663 C 79.9489 4.51775 67.5914 C.3 0 **** -0.106
6664 C 80.895 4.94551 66.4797 C.3 0 **** -0.106
6665 C 80.5727 4.29097 65.1409 C.2 0 **** -0.1268
6666 O 77.8008 5.1996 69.2701 O.3 0 **** -0.32
6667 C 76.8268 6.08211 69.7847 C.3 0 **** 0.16
6668 C 75.3481 5.57038 69.7712 C.3 0 **** 0
6669 C 74.8871 4.92258 68.4409 C.3 0 **** 0
6670 C 75.1213 3.664 63.4863 C.2 0 **** 0
6671 C 74.034 3.26424 64.4435 C.3 0 **** -0.053
6672 C 74.3057 4.18364 65.6682 C.3 0 **** 0
6673 C 72.6021 3.49652 64.0136 C.2 0 **** 0
6674 C 72.3779 4.34855 62.9795 C.2 0 **** 0
6675 C 73.4859 4.94754 62.1269 C.3 0 **** -0.106
6676 C 74.8813 4.4334 62.4313 C.2 0 **** -0.1268
6677 C 70.976 4.60299 62.4746 C.3 0 **** -0.106
6678 C 70.0071 4.57322 63.648 C.3 0 **** -0.106
6679 C 70.2841 3.34146 64.4926 C.2 0 **** 0
6680 C 71.5586 2.85035 64.6259 C.2 0 **** 0
6681 C 71.8041 1.65344 65.5254 C.3 0 **** -0.106
6682 C 70.5439 0.869714 65.862 C.3 0 **** -0.053
6683 C 69.4591 1.83792 66.3639 C.3 0 **** -0.106
6684 C 69.0802 2.81039 65.2415 C.3 0 **** -0.106
6685 C 73.539 5.27858 67.801 C.3 0 **** 0.147
6686 C 73.1997 4.2247 66.7573 C.3 0 **** -0.053
6687 C 74.3307 6.52499 70.4058 C.3 0 **** 0
6688 C 72.8642 6.07616 70.3798 C.3 0 **** 0.147
6689 S 72.1056 5.43488 68.9065 S.3 0 **** -0.294
6690 C 71.9115 6.97314 71.1212 C.3 0 **** -0.053
6691 C 72.4255 7.16437 72.5544 C.3 0 **** 0
6692 C 73.8952 7.7352 72.5817 C.3 0 **** 0
6693 C 74.8464 6.7643 71.8524 C.3 0 **** 0
6694 C 74.3276 7.90409 74.0308 C.3 0 **** 0
6695 C 73.3831 8.85992 74.7317 C.3 0 **** 0
6696 C 71.8699 8.38461 74.7025 C.3 0 **** 0
6697 C 71.4278 8.17216 73.2087 C.3 0 **** -0.053
6698 C 71.018 9.51785 75.3398 C.3 0 **** 0
6699 C 71.3694 9.55768 76.8109 C.3 0 **** 0.16
6700 C 72.8641 9.77684 77.0639 C.3 0 **** 0
6701 C 73.8937 9.34285 76.061 C.3 0 **** 0
6702 C 76.345 7.1599 71.9317 C.3 0 **** 0
6703 C 77.2726 6.17912 71.2211 C.3 0 **** -0.053
6704 C 75.8371 8.07688 74.3093 C.3 0 **** 0
6705 C 76.8623 7.91825 73.1839 C.3 0 **** 0
6706 C 75.3184 9.05689 76.536 C.3 0 **** 0
6707 C 76.2901 9.11244 75.3423 C.3 0 **** 0
6708 C 73.3421 10.5009 78.323 C.3 0 **** 0
6709 C 74.8093 10.1201 78.6991 C.3 0 **** 0
6710 C 75.7998 10.1537 77.5206 C.3 0 **** 0
6711 O 70.496 10.4623 77.4511 O.3 0 **** -0.32
6712 C 69.3707 9.63796 77.7517 C.3 0 **** 0.107
6713 C 68.8567 8.9277 76.4581 C.3 0 **** -0.053
6714 C 69.4759 9.57312 75.2201 C.3 0 **** 0.107
6715 C 67.3231 8.97247 76.3889 C.3 0 **** -0.106
6716 C 66.7258 8.73716 77.7884 C.3 0 **** -0.106
6717 C 67.0086 9.94337 78.7035 C.3 0 **** 0.134
6718 C 68.3844 10.5916 78.3925 C.3 0 **** -0.053
6719 C 69.0206 11.2462 79.6437 C.3 0 **** -0.106
6720 C 67.9311 11.8494 80.521 C.3 0 **** -0.106
6721 C 66.9228 10.7523 80.98 C.3 0 **** 0.081
6722 N 66.8677 9.58589 80.1007 N.3 0 **** -0.727
6723 C 78.2938 7.63528 73.7135 C.3 0 **** 0.16
6724 C 78.6955 8.75139 74.665 C.3 0 **** 0.16
6725 C 77.7572 8.72771 75.8373 C.3 0 **** 0
6726 O 80.0314 8.69105 75.1173 O.3 0 **** -0.32
6727 C 80.9064 8.51411 74.0085 C.3 0 **** 0.107
6728 C 80.5396 7.25141 73.2912 C.3 0 **** 0.107
6729 O 79.2691 7.4604 72.6977 O.3 0 **** -0.32
6730 C 80.5379 6.0189 74.2322 C.3 0 **** -0.106
6731 C 81.5301 6.19449 75.4177 C.3 0 **** -0.106
6732 C 82.7318 7.05541 74.9799 C.3 0 **** -0.106
6733 C 82.3033 8.49446 74.5758 C.3 0 **** -0.106
6734 C 77.2701 9.83054 78.0432 C.3 0 **** 0
6735 C 78.2451 9.83988 76.8227 C.3 0 **** -0.053
6736 C 75.3201 11.1258 79.744 C.3 0 **** 0
6737 C 76.7791 10.8513 80.1609 C.3 0 **** 0.16
6738 C 77.7566 10.8544 79.0525 C.3 0 **** -0.053
6739 C 74.3386 11.0006 80.975 C.3 0 **** 0
6740 C 72.8556 11.342 80.5379 C.3 0 **** 0
6741 C 72.4254 10.2457 79.551 C.3 0 **** -0.053
6742 O 77.2811 11.657 81.176 O.3 0 **** -0.32
6743 C 76.326 11.7326 82.2282 C.3 0 **** 0.16
6744 C 74.8366 12.138 81.8612 C.3 0 **** 0
6745 C 71.8291 11.4432 81.7007 C.3 0 **** -0.053
6746 C 72.3981 12.3384 82.7994 C.3 0 **** -0.053
6747 C 73.9278 12.1113 83.0966 C.3 0 **** 0
6748 C 71.7606 12.0217 84.1089 C.3 0 **** -0.053
6749 C 70.2891 11.752 83.9371 C.3 0 **** -0.106
6750 C 70.1234 10.4066 83.1738 C.3 0 **** -0.106
6751 C 71.3455 10.0982 82.2844 C.3 0 **** -0.106
6752 C 74.4246 13.1845 84.0361 C.3 0 **** 0
6753 C 75.9433 13.0665 84.3611 C.3 0 **** 0
6754 C 76.8929 12.7103 83.2203 C.3 0 **** 0
6755 C 72.0626 13.2715 84.9316 C.3 0 **** 0
6756 C 73.5633 13.2978 85.2745 C.3 0 **** 0
6757 C 70.8375 -0.307665 66.8274 C.3 0 **** -0.053
6758 C 71.1126 0.147828 68.268 C.3 0 **** -0.159
6759 C 69.7042 -1.34011 66.8078 C.3 0 **** -0.159
6760 O 68.9349 9.00972 74.0329 O.3 0 **** -0.57
6761 C 78.4163 13.0149 83.2824 C.3 0 **** -0.053
6762 C 78.9604 13.4045 84.6603 C.3 0 **** -0.053
6763 C 77.9867 14.3664 85.3644 C.3 0 **** 0
6764 C 76.5503 13.7869 85.5507 C.3 0 **** 0
6765 C 75.5169 14.5225 86.3854 C.3 0 **** 0
6766 C 76.0354 15.4848 87.4132 C.3 0 **** 0
6767 C 77.5722 15.5915 87.5785 C.3 0 **** 0
6768 C 78.5577 14.7485 86.7338 C.3 0 **** -0.053
6769 C 78.129 16.3852 88.7524 C.3 0 **** -0.053
6770 C 77.1442 16.8693 89.8392 C.3 0 **** -0.053
6771 C 75.629 16.9348 89.4741 C.3 0 **** 0
6772 C 75.1303 15.721 88.647 C.3 0 **** 0
6773 C 73.6224 15.8837 88.2092 C.3 0 **** 0
6774 C 73.1576 14.6317 87.3734 C.3 0 **** 0
6775 C 74.0118 14.4923 86.0967 C.3 0 **** 0
6776 C 72.7402 16.0529 89.487 C.3 0 **** 0
6777 C 73.2539 17.3071 90.2877 C.3 0 **** -0.053
6778 C 74.7304 17.1605 90.7034 C.3 0 **** -0.053
6779 C 71.2106 13.4224 86.2088 C.3 0 **** -0.053
6780 C 71.6594 14.7927 86.8928 C.3 0 **** 0
6781 C 71.2149 16.2514 89.0605 C.3 0 **** 0.02
6782 C 70.7211 15.0922 88.1249 C.3 0 **** 0
6783 C 69.2332 15.0654 87.7019 C.3 0 **** -0.106
6784 C 68.5053 16.2117 88.3457 C.3 0 **** -0.106
6785 C 68.8043 16.2505 89.84 C.3 0 **** -0.086
6786 C 70.2329 16.3809 90.2218 C.2 0 **** 0.379
6787 O 70.5354 16.6506 91.3717 O.2 0 **** -0.419
6788 H 76.3942 -2.67115 65.3483 H 0 **** 0.053
6789 H 76.9182 -0.990348 65.3918 H 0 **** 0.053
6790 H 75.7395 -2.53105 63.0656 H 0 **** 0.053
6791 H 75.7568 -0.800102 63.3604 H 0 **** 0.053
6792 H 77.944 -2.56715 62.1611 H 0 **** 0.053
6793 H 79.5025 -0.651242 62.2193 H 0 **** 0.053
6794 H 79.376 -0.640013 65.0503 H 0 **** 0.053
6795 H 80.1423 -1.89153 64.0778 H 0 **** 0.053
6796 H 77.6707 0.730659 64.1783 H 0 **** 0.053
6797 H 76.1931 1.12898 62.4025 H 0 **** 0.053
6798 H 78.4968 0.603046 60.4999 H 0 **** 0.053
6799 H 76.8423 0.971716 60.0016 H 0 **** 0.053
6800 H 77.4923 -1.56316 60.1392 H 0 **** 0.053
6801 H 75.971 -1.0893 60.8864 H 0 **** 0.053
6802 H 77.5799 4.48275 62.6355 H 0 **** 0.053
6803 H 79.7122 3.70145 62.743 H 0 **** 0.053
6804 H 80.0345 1.34771 64.2534 H 0 **** 0.053
6805 H 80.0601 1.53994 62.4952 H 0 **** 0.053
6806 H 76.382 2.17452 64.2567 H 0 **** 0.053
6807 H 80.0564 5.16751 68.4823 H 0 **** 0.053
6808 H 80.1154 3.47313 67.9274 H 0 **** 0.053
6809 H 81.9345 4.7598 66.761 H 0 **** 0.053
6810 H 80.7803 6.03696 66.3447 H 0 **** 0.053
6811 H 81.4078 4.26156 64.4479 H 0 **** 0.1268
6812 H 74.189 2.19966 64.7439 H 0 **** 0.053
6813 H 73.4744 6.07517 62.2035 H 0 **** 0.053
6814 H 73.279 4.71123 61.0488 H 0 **** 0.053
6815 H 75.6683 4.75093 61.7535 H 0 **** 0.1268
6816 H 70.9098 5.56204 61.9166 H 0 **** 0.053
6817 H 70.7296 3.79761 61.7596 H 0 **** 0.053
6818 H 68.9554 4.59687 63.2997 H 0 **** 0.053
6819 H 70.1527 5.47223 64.2772 H 0 **** 0.053
6820 H 72.5046 0.973461 65.0182 H 0 **** 0.053
6821 H 72.3042 1.96382 66.4632 H 0 **** 0.053
6822 H 70.1787 0.422832 64.9143 H 0 **** 0.053
6823 H 69.846 2.40347 67.2267 H 0 **** 0.053
6824 H 68.5633 1.30318 66.7105 H 0 **** 0.053
6825 H 68.4754 3.65021 65.6563 H 0 **** 0.053
6826 H 68.4241 2.28404 64.5123 H 0 **** 0.053
6827 H 72.1613 4.44628 66.3312 H 0 **** 0.053
6828 H 70.8253 6.65677 71.1059 H 0 **** 0.053
6829 H 70.4188 7.64931 73.1981 H 0 **** 0.053
6830 H 78.3606 6.48185 71.2168 H 0 **** 0.053
6831 H 69.68 8.88549 78.4966 H 0 **** 0.053
6832 H 69.1377 7.8548 76.4919 H 0 **** 0.053
6833 H 69.25 10.6301 75.2433 H 0 **** 0.053
6834 H 66.9978 9.96679 76.0123 H 0 **** 0.053
6835 H 66.9533 8.22461 75.6504 H 0 **** 0.053
6836 H 67.1972 7.82882 78.1987 H 0 **** 0.053
6837 H 65.643 8.54065 77.7428 H 0 **** 0.053
6838 H 66.2404 10.7019 78.4816 H 0 **** 0.053
6839 H 68.227 11.3877 77.6359 H 0 **** 0.053
6840 H 69.5166 10.4562 80.2267 H 0 **** 0.053
6841 H 69.7895 11.9834 79.3527 H 0 **** 0.053
6842 H 67.4164 12.6249 79.925 H 0 **** 0.053
6843 H 68.3607 12.3744 81.3914 H 0 **** 0.053
6844 H 65.9122 11.1871 81.0397 H 0 **** 0.053
6845 H 67.1637 10.4174 82.004 H 0 **** 0.053
6846 H 67.5882 8.93496 80.3424 H 0 **** 0.353
6847 H 80.7527 9.35394 73.3313 H 0 **** 0.053
6848 H 81.2521 7.0675 72.4912 H 0 **** 0.053
6849 H 79.5298 5.81906 74.6533 H 0 **** 0.053
6850 H 80.79 5.09232 73.6745 H 0 **** 0.053
6851 H 81.8634 5.20908 75.8018 H 0 **** 0.053
6852 H 81.0151 6.69036 76.265 H 0 **** 0.053
6853 H 83.1905 6.56541 74.1036 H 0 **** 0.053
6854 H 83.5027 7.09106 75.7712 H 0 **** 0.053
6855 H 83.0511 8.94093 73.8944 H 0 **** 0.053
6856 H 82.2855 9.13589 75.4867 H 0 **** 0.053
6857 H 79.2991 9.60968 77.2038 H 0 **** 0.053
6858 H 78.8076 10.6547 79.3479 H 0 **** 0.053
6859 H 71.342 10.4312 79.3037 H 0 **** 0.053
6860 H 70.9741 11.9313 81.253 H 0 **** 0.053
6861 H 72.2385 13.3929 82.5004 H 0 **** 0.053
6862 H 72.2241 11.1385 84.598 H 0 **** 0.053
6863 H 69.8446 12.5846 83.3597 H 0 **** 0.053
6864 H 69.7252 11.6903 84.8932 H 0 **** 0.053
6865 H 69.2155 10.4465 82.5392 H 0 **** 0.053
6866 H 69.9546 9.58552 83.8967 H 0 **** 0.053
6867 H 71.0718 9.36551 81.5038 H 0 **** 0.053
6868 H 72.1547 9.64441 82.8714 H 0 **** 0.053
6869 H 71.7472 -0.816441 66.4554 H 0 **** 0.053
6870 H 71.4304 -0.701667 68.8935 H 0 **** 0.053
6871 H 70.2052 0.577759 68.7227 H 0 **** 0.053
6872 H 71.905 0.911497 68.3215 H 0 **** 0.053
6873 H 69.5303 -1.72227 65.7893 H 0 **** 0.053
6874 H 68.7615 -0.897809 67.1663 H 0 **** 0.053
6875 H 69.9402 -2.20094 67.4522 H 0 **** 0.053
6876 H 69.3699 9.46196 73.3124 H 0 **** 0.41
6877 H 79.0775 12.3899 82.6183 H 0 **** 0.053
6878 H 80.004 13.8194 84.59 H 0 **** 0.053
6879 H 79.5907 15.19 86.6951 H 0 **** 0.053
6880 H 79.2342 16.5374 88.8469 H 0 **** 0.053
6881 H 77.5344 17.6271 90.5633 H 0 **** 0.053
6882 H 72.6291 17.5274 91.1946 H 0 **** 0.053
6883 H 75.1 18.0078 91.326 H 0 **** 0.053
6884 H 70.0887 13.4548 85.959 H 0 **** 0.053
6885 H 69.1244 15.09 86.6033 H 0 **** 0.053
6886 H 68.8817 14.0963 88.0524 H 0 **** 0.053
6887 H 67.4339 16.1125 88.1808 H 0 **** 0.053
6888 H 68.8205 17.159 87.863 H 0 **** 0.053
6889 H 68.5043 15.3182 90.3252 H 0 **** 0.053
6890 H 68.3721 17.0911 90.3782 H 0 **** 0.053
6891 C 20.7463 33.3735 38.1505 C.3 0 **** 0.054
6892 C 19.4664 34.172 38.5316 C.3 0 **** -0.106
6893 C 18.286 33.2151 38.8572 C.3 0 **** -0.053
6894 C 18.3193 32.0383 37.8526 C.3 0 **** -0.053
6895 C 19.6904 31.3025 37.9367 C.3 0 **** 0.054
6896 O 20.6774 32.0441 38.6392 O.3 0 **** -0.32
6897 C 18.0259 32.5343 36.4059 C.3 0 **** -0.053
6898 C 16.9506 33.6863 36.3658 C.3 0 **** 0.107
6899 C 16.0874 33.6536 37.621 C.3 0 **** -0.106
6900 C 16.9097 33.9251 38.8917 C.3 0 **** -0.106
6901 O 16.0639 33.6246 35.2432 O.3 0 **** -0.32
6902 C 16.7772 33.3042 34.059 C.3 0 **** 0.107
6903 C 17.0955 31.786 34.1108 C.3 0 **** -0.053
6904 C 17.6015 31.3528 35.5108 C.3 0 **** -0.106
6905 C 18.0189 31.2868 33.0291 C.2 0 **** 0
6906 C 19.0976 32.261 32.5768 C.3 0 **** 0
6907 C 18.7009 33.7368 32.5737 C.3 0 **** 0
6908 C 17.9535 34.2432 33.8011 C.3 0 **** -0.053
6909 C 19.8024 34.6811 32.1346 C.3 0 **** 0
6910 C 20.3616 34.2656 30.7783 C.3 0 **** 0
6911 C 20.835 32.7666 30.8691 C.3 0 **** 0.16
6912 C 19.7196 31.8249 31.2658 C.3 0 **** 0
6913 C 20.1195 30.3255 31.1974 C.3 0 **** -0.106
6914 C 18.7945 29.5836 31.2878 C.3 0 **** -0.106
6915 C 17.9152 30.0758 32.432 C.2 0 **** -0.1268
6916 O 21.6872 32.22 29.8382 O.3 0 **** -0.32
6917 C 21.9419 33.1455 28.8031 C.3 0 **** 0.16
6918 C 22.3773 34.5821 29.2449 C.3 0 **** 0
6919 C 21.5254 35.2097 30.3769 C.3 0 **** 0
6920 C 17.5612 35.6812 33.5815 C.2 0 **** 0
6921 C 18.7594 36.5865 33.5264 C.3 0 **** -0.053
6922 C 19.4358 36.1745 32.1874 C.3 0 **** 0
6923 C 18.5084 38.0769 33.4652 C.2 0 **** 0
6924 C 17.2652 38.4998 33.116 C.2 0 **** 0
6925 C 16.0716 37.5703 32.9515 C.3 0 **** -0.106
6926 C 16.3352 36.1193 33.3186 C.2 0 **** -0.1268
6927 C 16.9334 39.9732 33.0643 C.3 0 **** -0.106
6928 C 18.1533 40.7467 32.5852 C.3 0 **** -0.106
6929 C 19.3738 40.283 33.3612 C.2 0 **** 0
6930 C 19.4913 38.9808 33.7779 C.2 0 **** 0
6931 C 20.7518 38.5417 34.4988 C.3 0 **** -0.106
6932 C 21.5787 39.6955 35.0476 C.3 0 **** -0.053
6933 C 21.8038 40.736 33.9374 C.3 0 **** -0.106
6934 C 20.457 41.33 33.5104 C.3 0 **** -0.106
6935 C 21.0209 36.6559 30.2919 C.3 0 **** 0.147
6936 C 20.5732 37.1001 31.6767 C.3 0 **** -0.053
6937 C 22.7168 35.5351 28.0938 C.3 0 **** 0
6938 C 23.1143 36.964 28.4844 C.3 0 **** 0.147
6939 S 22.1764 37.9083 29.6614 S.3 0 **** -0.294
6940 C 23.5598 37.8337 27.3415 C.3 0 **** -0.053
6941 C 24.6843 37.1156 26.5834 C.3 0 **** 0
6942 C 24.2384 35.6887 26.0816 C.3 0 **** 0
6943 C 23.8322 34.8148 27.286 C.3 0 **** 0
6944 C 25.3995 35.0471 25.3358 C.3 0 **** 0
6945 C 25.7852 35.9179 24.1568 C.3 0 **** 0
6946 C 26.1976 37.3926 24.5717 C.3 0 **** 0
6947 C 25.0159 38.0486 25.3755 C.3 0 **** -0.053
6948 C 26.4384 38.1904 23.2595 C.3 0 **** 0
6949 C 27.6852 37.6192 22.6203 C.3 0 **** 0.16
6950 C 27.5818 36.1161 22.3451 C.3 0 **** 0
6951 C 26.697 35.2331 23.1768 C.3 0 **** 0
6952 C 23.5009 33.3427 26.9231 C.3 0 **** 0
6953 C 23.1185 32.489 28.1277 C.3 0 **** -0.053
6954 C 25.3362 33.5227 25.0931 C.3 0 **** 0
6955 C 24.2278 32.6765 25.724 C.3 0 **** 0
6956 C 27.0124 33.7399 23.2678 C.3 0 **** 0
6957 C 25.7632 32.9673 23.7314 C.3 0 **** 0
6958 C 28.3366 35.4857 21.1742 C.3 0 **** 0
6959 C 28.5958 33.9614 21.3936 C.3 0 **** 0
6960 C 27.3662 33.1668 21.8711 C.3 0 **** 0
6961 O 28.0262 38.4268 21.5146 O.3 0 **** -0.32
6962 C 28.8159 39.4509 22.1176 C.3 0 **** 0.107
6963 C 28.0308 40.1227 23.2901 C.3 0 **** -0.053
6964 C 26.5553 39.7335 23.2283 C.3 0 **** 0.107
6965 C 28.1959 41.649 23.2477 C.3 0 **** -0.106
6966 C 29.6438 42.0117 22.8697 C.3 0 **** -0.106
6967 C 29.922 41.6506 21.3985 C.3 0 **** 0.134
6968 C 29.1555 40.3721 20.9649 C.3 0 **** -0.053
6969 C 29.906 39.5837 19.8631 C.3 0 **** -0.106
6970 C 30.6187 40.5533 18.9291 C.3 0 **** -0.106
6971 C 31.6441 41.4244 19.717 C.3 0 **** 0.081
6972 N 31.3451 41.5572 21.1417 N.3 0 **** -0.727
6973 C 24.5904 31.1684 25.7903 C.3 0 **** 0.16
6974 C 24.9196 30.6795 24.3884 C.3 0 **** 0.16
6975 C 26.1308 31.4245 23.9051 C.3 0 **** 0
6976 O 25.136 29.2885 24.2822 O.3 0 **** -0.32
6977 C 24.0745 28.5866 24.9203 C.3 0 **** 0.107
6978 C 24.0103 28.9979 26.3591 C.3 0 **** 0.107
6979 O 23.5954 30.3533 26.3897 O.3 0 **** -0.32
6980 C 25.3626 28.7942 27.0904 C.3 0 **** -0.106
6981 C 26.1943 27.6405 26.4591 C.3 0 **** -0.106
6982 C 25.2544 26.5637 25.8812 C.3 0 **** -0.106
6983 C 24.3676 27.1195 24.7309 C.3 0 **** -0.106
6984 C 27.7326 31.6197 21.9776 C.3 0 **** 0
6985 C 26.4778 30.8456 22.4943 C.3 0 **** -0.053
6986 C 29.0365 33.3455 20.0555 C.3 0 **** 0
6987 C 29.29 31.8281 20.1612 C.3 0 **** 0.16
6988 C 28.138 31.0342 20.6372 C.3 0 **** -0.053
6989 C 30.3494 34.1186 19.6395 C.3 0 **** 0
6990 C 30.0543 35.6661 19.481 C.3 0 **** 0
6991 C 29.6899 36.1891 20.879 C.3 0 **** -0.053
6992 O 29.7877 31.2155 19.0173 O.3 0 **** -0.32
6993 C 30.853 32.0001 18.4931 C.3 0 **** 0.16
6994 C 30.5956 33.5462 18.247 C.3 0 **** 0
6995 C 31.2198 36.5051 18.8865 C.3 0 **** -0.053
6996 C 31.7451 35.818 17.6277 C.3 0 **** -0.053
6997 C 31.8603 34.2515 17.7413 C.3 0 **** 0
6998 C 33.1523 36.2303 17.3603 C.3 0 **** -0.053
6999 C 33.345 37.6958 17.6479 C.3 0 **** -0.106
7000 C 33.2416 37.9112 19.1852 C.3 0 **** -0.106
7001 C 32.3753 36.827 19.8586 C.3 0 **** -0.106
7002 C 32.1811 33.669 16.3852 C.3 0 **** 0
7003 C 32.2765 32.1143 16.3862 C.3 0 **** 0
7004 C 31.2507 31.3348 17.2043 C.3 0 **** 0
7005 C 33.3266 35.8665 15.888 C.3 0 **** 0
7006 C 33.3831 34.3339 15.7516 C.3 0 **** 0
7007 C 22.8828 39.1999 35.7244 C.3 0 **** -0.053
7008 C 23.9431 38.7289 34.7181 C.3 0 **** -0.159
7009 C 23.4724 40.271 36.6495 C.3 0 **** -0.159
7010 O 25.8092 40.4228 24.2223 O.3 0 **** -0.57
7011 C 30.9351 29.8376 16.9301 C.3 0 **** -0.053
7012 C 31.9226 29.108 16.0148 C.3 0 **** -0.053
7013 C 32.3172 30.006 14.8297 C.3 0 **** 0
7014 C 32.9512 31.3669 15.2512 C.3 0 **** 0
7015 C 33.5575 32.2948 14.2141 C.3 0 **** 0
7016 C 34.0089 31.6693 12.9276 C.3 0 **** 0
7017 C 33.8472 30.135 12.7813 C.3 0 **** 0
7018 C 33.2962 29.2513 13.9256 C.3 0 **** -0.053
7019 C 34.5145 29.4375 11.6044 C.3 0 **** -0.053
7020 C 35.417 30.2732 10.6729 C.3 0 **** -0.053
7021 C 35.3186 31.828 10.7403 C.3 0 **** 0
7022 C 35.1588 32.3865 12.1788 C.3 0 **** 0
7023 C 34.9392 33.95 12.1827 C.3 0 **** 0
7024 C 34.7806 34.4762 13.6593 C.3 0 **** 0
7025 C 33.5564 33.8232 14.3329 C.3 0 **** 0
7026 C 36.1568 34.6319 11.481 C.3 0 **** 0
7027 C 36.2764 34.0623 10.0177 C.3 0 **** -0.053
7028 C 36.4743 32.5337 10.0078 C.3 0 **** -0.053
7029 C 34.5464 36.5181 15.2044 C.3 0 **** -0.053
7030 C 34.5232 36.0365 13.683 C.3 0 **** 0
7031 C 35.9372 36.2128 11.4482 C.3 0 **** 0.02
7032 C 35.655 36.7875 12.8811 C.3 0 **** 0
7033 C 35.525 38.3198 13.0515 C.3 0 **** -0.106
7034 C 35.7466 38.9949 11.7273 C.3 0 **** -0.106
7035 C 37.0229 38.4717 11.0782 C.3 0 **** -0.086
7036 C 37.0824 37.0095 10.8293 C.2 0 **** 0.379
7037 O 37.9538 36.546 10.1134 O.2 0 **** -0.419
7038 H 21.6407 33.8284 38.5975 H 0 **** 0.053
7039 H 20.9028 33.3863 37.0607 H 0 **** 0.053
7040 H 19.6405 34.8326 39.4036 H 0 **** 0.053
7041 H 19.1885 34.8545 37.7069 H 0 **** 0.053
7042 H 18.4912 32.7943 39.8549 H 0 **** 0.053
7043 H 17.5038 31.3407 38.1186 H 0 **** 0.053
7044 H 20.0586 31.0305 36.9322 H 0 **** 0.053
7045 H 19.5794 30.3628 38.489 H 0 **** 0.053
7046 H 18.9847 32.9143 36.0127 H 0 **** 0.053
7047 H 17.4646 34.6651 36.3577 H 0 **** 0.053
7048 H 15.6062 32.6584 37.6703 H 0 **** 0.053
7049 H 15.2722 34.3858 37.5089 H 0 **** 0.053
7050 H 16.3365 33.5997 39.7708 H 0 **** 0.053
7051 H 17.0549 35.0093 38.9999 H 0 **** 0.053
7052 H 16.0685 33.424 33.2371 H 0 **** 0.053
7053 H 16.1455 31.2653 33.9457 H 0 **** 0.053
7054 H 18.4189 30.6 35.467 H 0 **** 0.053
7055 H 16.7586 30.8547 36.0217 H 0 **** 0.053
7056 H 18.6653 34.2452 34.6407 H 0 **** 0.053
7057 H 20.6335 30.1138 30.2391 H 0 **** 0.053
7058 H 20.8247 30.0584 32.0118 H 0 **** 0.053
7059 H 18.9571 28.5055 31.3609 H 0 **** 0.053
7060 H 18.242 29.7706 30.3485 H 0 **** 0.053
7061 H 17.1724 29.3566 32.7628 H 0 **** 0.1268
7062 H 19.4429 36.335 34.3731 H 0 **** 0.053
7063 H 15.6819 37.6219 31.8911 H 0 **** 0.053
7064 H 15.2321 37.941 33.6058 H 0 **** 0.053
7065 H 15.4721 35.4601 33.3235 H 0 **** 0.1268
7066 H 16.0482 40.1707 32.4215 H 0 **** 0.053
7067 H 16.6634 40.2876 34.0885 H 0 **** 0.053
7068 H 17.9996 41.8392 32.6875 H 0 **** 0.053
7069 H 18.3235 40.5497 31.5094 H 0 **** 0.053
7070 H 20.4652 37.8953 35.3417 H 0 **** 0.053
7071 H 21.3853 37.919 33.8378 H 0 **** 0.053
7072 H 20.9715 40.1799 35.8399 H 0 **** 0.053
7073 H 22.2825 40.2491 33.0727 H 0 **** 0.053
7074 H 22.4786 41.5407 34.2625 H 0 **** 0.053
7075 H 20.5798 41.9041 32.5625 H 0 **** 0.053
7076 H 20.1248 42.064 34.2787 H 0 **** 0.053
7077 H 20.2663 38.2014 31.6312 H 0 **** 0.053
7078 H 23.8515 38.892 27.6142 H 0 **** 0.053
7079 H 25.3838 39.0204 25.8356 H 0 **** 0.053
7080 H 22.8161 31.4305 27.8761 H 0 **** 0.053
7081 H 29.7447 38.9944 22.4995 H 0 **** 0.053
7082 H 28.4584 39.7879 24.2577 H 0 **** 0.053
7083 H 26.1766 40.0043 22.2526 H 0 **** 0.053
7084 H 27.5005 42.0764 22.4928 H 0 **** 0.053
7085 H 27.9012 42.0911 24.227 H 0 **** 0.053
7086 H 30.3108 41.4391 23.5353 H 0 **** 0.053
7087 H 29.8574 43.0777 23.046 H 0 **** 0.053
7088 H 29.5335 42.4797 20.7853 H 0 **** 0.053
7089 H 28.174 40.6827 20.5512 H 0 **** 0.053
7090 H 30.6751 38.966 20.3499 H 0 **** 0.053
7091 H 29.218 38.9055 19.3282 H 0 **** 0.053
7092 H 29.847 41.1908 18.4605 H 0 **** 0.053
7093 H 31.1141 40.0211 18.0991 H 0 **** 0.053
7094 H 31.6803 42.4337 19.2767 H 0 **** 0.053
7095 H 32.662 41.0127 19.6019 H 0 **** 0.053
7096 H 31.7149 40.7772 21.6479 H 0 **** 0.353
7097 H 23.1455 28.8835 24.4339 H 0 **** 0.053
7098 H 23.2543 28.4092 26.8722 H 0 **** 0.053
7099 H 25.9842 29.7145 27.0774 H 0 **** 0.053
7100 H 25.2039 28.5867 28.1697 H 0 **** 0.053
7101 H 26.892 27.2051 27.2031 H 0 **** 0.053
7102 H 26.8323 28.0429 25.6465 H 0 **** 0.053
7103 H 24.5967 26.2228 26.6993 H 0 **** 0.053
7104 H 25.8256 25.6829 25.5359 H 0 **** 0.053
7105 H 23.4526 26.5083 24.6213 H 0 **** 0.053
7106 H 24.923 27.0283 23.7692 H 0 **** 0.053
7107 H 26.746 29.7356 22.5666 H 0 **** 0.053
7108 H 28.3168 29.9417 20.7172 H 0 **** 0.053
7109 H 29.5652 37.3054 20.7914 H 0 **** 0.053
7110 H 30.7541 37.4415 18.6111 H 0 **** 0.053
7111 H 31.0678 36.073 16.7892 H 0 **** 0.053
7112 H 33.8807 35.6547 17.9702 H 0 **** 0.053
7113 H 32.5551 38.2639 17.121 H 0 **** 0.053
7114 H 34.3182 38.1023 17.2964 H 0 **** 0.053
7115 H 32.8014 38.9069 19.394 H 0 **** 0.053
7116 H 34.2555 37.9267 19.629 H 0 **** 0.053
7117 H 32.021 37.1816 20.8434 H 0 **** 0.053
7118 H 32.9592 35.9161 20.044 H 0 **** 0.053
7119 H 22.6133 38.3345 36.3595 H 0 **** 0.053
7120 H 24.8034 38.2777 35.2379 H 0 **** 0.053
7121 H 24.3191 39.5754 34.1206 H 0 **** 0.053
7122 H 23.5494 37.9758 34.0168 H 0 **** 0.053
7123 H 22.7443 40.5808 37.416 H 0 **** 0.053
7124 H 23.7627 41.1677 36.0798 H 0 **** 0.053
7125 H 24.3675 39.897 37.17 H 0 **** 0.053
7126 H 24.9071 40.1259 24.1186 H 0 **** 0.41
7127 H 30.4921 29.2568 17.7872 H 0 **** 0.053
7128 H 31.5226 28.1091 15.688 H 0 **** 0.053
7129 H 32.9111 28.2613 13.5605 H 0 **** 0.053
7130 H 34.336 28.3465 11.4299 H 0 **** 0.053
7131 H 35.7107 29.807 9.70196 H 0 **** 0.053
7132 H 37.0987 34.5509 9.42981 H 0 **** 0.053
7133 H 36.6239 32.1142 8.98632 H 0 **** 0.053
7134 H 34.4886 37.6653 15.2563 H 0 **** 0.053
7135 H 34.547 38.5975 13.4823 H 0 **** 0.053
7136 H 36.295 38.5657 13.781 H 0 **** 0.053
7137 H 35.8112 40.0728 11.8648 H 0 **** 0.053
7138 H 34.8726 38.8045 11.0718 H 0 **** 0.053
7139 H 37.8903 38.6478 11.7194 H 0 **** 0.053
7140 H 37.2283 38.8567 10.0819 H 0 **** 0.053
7141 C 127.152 80.8222 79.5049 C.2 0 **** 0
7142 C 126.51 79.6304 79.2054 C.2 0 **** 0
7143 C 125.625 79.5686 78.1409 C.2 0 **** 0
7144 C 125.406 80.6933 77.3847 C.2 0 **** 0
7145 C 126.087 81.8762 77.6453 C.2 0 **** 0
7146 C 126.97 81.9353 78.7036 C.2 0 **** 0
7147 C 124.427 80.6634 76.2288 C.3 0 **** -0.106
7148 C 123.57 79.4203 76.0279 C.2 0 **** 0
7149 C 123.782 78.2969 76.7776 C.2 0 **** 0
7150 C 124.9 78.2652 77.817 C.3 0 **** -0.106
7151 C 122.962 77.1793 76.5904 C.2 0 **** 0
7152 C 121.895 77.2134 75.7148 C.2 0 **** 0
7153 C 121.744 78.3158 74.8815 C.2 0 **** 0
7154 C 122.567 79.4363 75.0437 C.2 0 **** 0
7155 C 122.379 80.5587 74.2516 C.2 0 **** -0.1268
7156 C 121.329 80.7239 73.372 C.2 0 **** 0
7157 C 120.417 79.6105 73.3403 C.2 0 **** 0
7158 C 120.761 78.3766 73.898 C.2 0 **** 0.042
7159 C 119.149 79.6898 72.4666 C.3 0 **** 0
7160 C 118.927 80.9456 71.6197 C.3 0 **** 0
7161 C 120.072 81.9762 71.5529 C.2 0 **** 0
7162 C 121.201 81.8695 72.4295 C.2 0 **** 0
7163 C 117.445 81.3308 71.4239 C.3 0 **** -0.106
7164 C 116.661 81.2792 72.739 C.3 0 **** -0.053
7165 C 116.666 79.8479 73.3573 C.3 0 **** -0.053
7166 C 117.84 78.964 72.8601 C.3 0 **** -0.106
7167 C 122.227 82.8154 72.2328 C.2 0 **** 0.042
7168 C 122.115 83.792 71.2664 C.2 0 **** 0.052
7169 C 121.018 83.8456 70.4191 C.2 0 **** 0.052
7170 C 120.033 82.9002 70.5243 C.2 0 **** 0.042
7171 C 120.874 84.8954 69.3485 C.2 0 **** 0.367
7172 C 121.981 85.8922 69.2429 C.2 0 **** 0
7173 C 123.049 85.8376 70.0467 C.2 0 **** 0
7174 C 123.211 84.8143 71.1071 C.2 0 **** 0.367
7175 C 124.16 86.858 69.9407 C.3 0 **** -0.106
7176 C 123.548 88.2333 69.573 C.3 0 **** -0.106
7177 C 122.661 88.1241 68.333 C.2 0 **** 0
7178 C 121.868 86.9647 68.1739 C.2 0 **** 0.2405
7179 N 121.04 86.8043 67.1204 N.2 0 **** -0.481
7180 C 120.91 87.8155 66.2678 C.2 0 **** 0.2405
7181 C 121.696 88.9877 66.356 C.2 0 **** 0
7182 C 122.582 89.1231 67.3949 C.2 0 **** 0
7183 C 123.438 90.3741 67.5521 C.3 0 **** -0.106
7184 C 123.491 91.2236 66.2762 C.3 0 **** -0.106
7185 C 122.096 91.3796 65.6805 C.3 0 **** -0.106
7186 C 121.56 90.0016 65.2473 C.3 0 **** -0.053
7187 C 120.08 90.0887 64.7898 C.3 0 **** -0.106
7188 C 119.564 88.7112 64.4695 C.2 0 **** 0
7189 C 119.97 87.6106 65.2264 C.2 0 **** 0
7190 C 119.437 86.3413 64.9378 C.2 0 **** -0.1268
7191 C 118.501 86.2059 63.9311 C.2 0 **** -0.1268
7192 C 118.062 87.2989 63.2048 C.2 0 **** 0
7193 C 118.586 88.559 63.4917 C.2 0 **** 0
7194 C 127.756 83.1942 78.9686 C.3 0 **** -0.106
7195 C 126.939 84.1917 79.8168 C.3 0 **** -0.159
7196 C 128.051 80.893 80.7114 C.3 0 **** -0.159
7197 C 125.805 83.0654 76.7563 C.3 0 **** -0.159
7198 C 126.766 78.3994 80.0402 C.3 0 **** -0.159
7199 C 123.26 75.9367 77.4297 C.3 0 **** -0.159
7200 C 120.949 76.0355 75.7354 C.3 0 **** -0.159
7201 O 120.062 77.2646 73.5225 O.3 0 **** -0.452
7202 C 115.4 79.042 73.0568 C.3 0 **** -0.159
7203 C 115.257 81.8328 72.4685 C.3 0 **** -0.159
7204 O 118.979 82.8246 69.6541 O.3 0 **** -0.452
7205 O 123.353 82.7717 72.9883 O.3 0 **** -0.452
7206 O 124.177 84.7987 71.8004 O.2 0 **** -0.419
7207 O 119.898 84.9416 68.6582 O.2 0 **** -0.419
7208 C 118.076 89.7693 62.7277 C.3 0 **** -0.159
7209 C 117.009 87.0763 62.1373 C.3 0 **** -0.159
7210 H 123.732 81.5247 76.365 H 0 **** 0.053
7211 H 124.992 80.8565 75.2846 H 0 **** 0.053
7212 H 125.664 77.5204 77.4873 H 0 **** 0.053
7213 H 124.469 77.8737 78.7648 H 0 **** 0.053
7214 H 123.096 81.3338 74.404 H 0 **** 0.1268
7215 H 117.345 82.3316 70.9997 H 0 **** 0.053
7216 H 117.036 80.6137 70.7086 H 0 **** 0.053
7217 H 117.158 81.9604 73.4534 H 0 **** 0.053
7218 H 116.756 79.9628 74.4456 H 0 **** 0.053
7219 H 117.539 78.4592 71.9376 H 0 **** 0.053
7220 H 118.024 78.1891 73.6138 H 0 **** 0.053
7221 H 124.738 86.9579 70.8775 H 0 **** 0.053
7222 H 124.869 86.5268 69.163 H 0 **** 0.053
7223 H 124.386 88.9423 69.4524 H 0 **** 0.053
7224 H 122.962 88.605 70.44 H 0 **** 0.053
7225 H 123.033 90.993 68.3757 H 0 **** 0.053
7226 H 124.477 90.1216 67.8298 H 0 **** 0.053
7227 H 124.147 90.7367 65.5298 H 0 **** 0.053
7228 H 123.94 92.2118 66.4877 H 0 **** 0.053
7229 H 122.104 92.0685 64.8143 H 0 **** 0.053
7230 H 121.416 91.821 66.4325 H 0 **** 0.053
7231 H 122.17 89.6644 64.374 H 0 **** 0.053
7232 H 119.474 90.5442 65.6059 H 0 **** 0.053
7233 H 120.021 90.7889 63.9283 H 0 **** 0.053
7234 H 119.751 85.4567 65.5064 H 0 **** 0.1268
7235 H 118.085 85.2088 63.713 H 0 **** 0.1268
7236 H 128.076 83.6911 78.0323 H 0 **** 0.053
7237 H 128.711 82.989 79.4844 H 0 **** 0.053
7238 H 126.647 83.7457 80.782 H 0 **** 0.053
7239 H 126.018 84.5031 79.2963 H 0 **** 0.053
7240 H 127.518 85.1102 80.0393 H 0 **** 0.053
7241 H 127.741 80.2045 81.5215 H 0 **** 0.053
7242 H 128.053 81.8918 81.188 H 0 **** 0.053
7243 H 129.107 80.6478 80.4597 H 0 **** 0.053
7244 H 124.738 83.3762 76.8167 H 0 **** 0.053
7245 H 126.018 82.8432 75.6885 H 0 **** 0.053
7246 H 126.381 83.9718 76.9934 H 0 **** 0.053
7247 H 126.583 77.4514 79.4982 H 0 **** 0.053
7248 H 126.122 78.3784 80.9476 H 0 **** 0.053
7249 H 127.817 78.3296 80.3793 H 0 **** 0.053
7250 H 123.012 74.9992 76.9017 H 0 **** 0.053
7251 H 122.699 75.941 78.3924 H 0 **** 0.053
7252 H 124.338 75.8261 77.6868 H 0 **** 0.053
7253 H 119.884 76.3527 75.6761 H 0 **** 0.053
7254 H 120.974 75.4289 76.6814 H 0 **** 0.053
7255 H 121.127 75.311 74.8986 H 0 **** 0.053
7256 H 119.624 77.4341 72.6848 H 0 **** 0.41
7257 H 114.509 79.5057 73.4996 H 0 **** 0.053
7258 H 115.483 78.0212 73.4762 H 0 **** 0.053
7259 H 115.239 78.9362 71.9657 H 0 **** 0.053
7260 H 115.313 82.8757 72.1032 H 0 **** 0.053
7261 H 114.644 81.8349 73.3821 H 0 **** 0.053
7262 H 114.731 81.2452 71.6901 H 0 **** 0.053
7263 H 119.008 83.6012 69.0753 H 0 **** 0.41
7264 H 123.938 83.5076 72.7564 H 0 **** 0.41
7265 H 117.783 90.5871 63.4126 H 0 **** 0.053
7266 H 117.177 89.5612 62.116 H 0 **** 0.053
7267 H 118.842 90.1687 62.0315 H 0 **** 0.053
7268 H 116.071 87.6141 62.3657 H 0 **** 0.053
7269 H 116.74 86.0103 62.0341 H 0 **** 0.053
7270 H 117.354 87.4107 61.1433 H 0 **** 0.053
7271 C 129.484 72.662 90.3566 C.2 0 **** 0
7272 C 130.776 72.1601 90.3346 C.2 0 **** 0
7273 C 131.854 73.0137 90.5082 C.2 0 **** 0
7274 C 131.624 74.3512 90.7153 C.2 0 **** 0
7275 C 130.33 74.852 90.7938 C.2 0 **** 0
7276 C 129.258 74.0004 90.6235 C.2 0 **** 0
7277 C 132.782 75.3132 90.8856 C.3 0 **** -0.106
7278 C 134.197 74.801 90.6561 C.2 0 **** 0
7279 C 134.435 73.4709 90.4483 C.2 0 **** 0
7280 C 133.28 72.4717 90.4658 C.3 0 **** -0.106
7281 C 135.742 73.0326 90.2132 C.2 0 **** 0
7282 C 136.789 73.9272 90.1122 C.2 0 **** 0
7283 C 136.565 75.2632 90.4237 C.2 0 **** 0
7284 C 135.265 75.7155 90.6794 C.2 0 **** 0
7285 C 135.032 77.0586 90.9337 C.2 0 **** -0.1268
7286 C 135.987 78.0481 90.8258 C.2 0 **** 0
7287 C 137.28 77.5655 90.415 C.2 0 **** 0
7288 C 137.59 76.2036 90.452 C.2 0 **** 0.042
7289 C 138.424 78.5695 90.1684 C.3 0 **** 0
7290 C 138.154 80.0555 90.4178 C.3 0 **** 0
7291 C 136.811 80.4401 91.0698 C.2 0 **** 0
7292 C 135.77 79.4665 91.224 C.2 0 **** 0
7293 C 138.935 81.0107 89.4906 C.3 0 **** -0.106
7294 C 138.87 80.5677 88.0256 C.3 0 **** -0.053
7295 C 139.491 79.1524 87.8225 C.3 0 **** -0.053
7296 C 139.531 78.3039 89.1206 C.3 0 **** -0.106
7297 C 134.614 79.9011 91.9032 C.2 0 **** 0.042
7298 C 134.504 81.1981 92.3573 C.2 0 **** 0.052
7299 C 135.545 82.1032 92.2133 C.2 0 **** 0.052
7300 C 136.716 81.7024 91.6277 C.2 0 **** 0.042
7301 C 135.457 83.5227 92.7095 C.2 0 **** 0.367
7302 C 134.177 83.9168 93.3693 C.2 0 **** 0
7303 C 133.174 83.0448 93.5256 C.2 0 **** 0
7304 C 133.238 81.6436 93.044 C.2 0 **** 0.367
7305 C 131.877 83.4552 94.1843 C.3 0 **** -0.106
7306 C 131.561 84.924 93.8056 C.3 0 **** -0.106
7307 C 132.75 85.8357 94.1117 C.2 0 **** 0
7308 C 134.053 85.3406 93.8819 C.2 0 **** 0.2405
7309 N 135.153 86.0921 94.1024 N.2 0 **** -0.481
7310 C 134.981 87.3612 94.4584 C.2 0 **** 0.2405
7311 C 133.705 87.9062 94.7325 C.2 0 **** 0
7312 C 132.592 87.1217 94.5651 C.2 0 **** 0
7313 C 131.191 87.6635 94.8237 C.3 0 **** -0.106
7314 C 131.197 88.9662 95.6331 C.3 0 **** -0.106
7315 C 132.248 89.9279 95.0894 C.3 0 **** -0.106
7316 C 133.651 89.3159 95.2666 C.3 0 **** -0.053
7317 C 134.737 90.1836 94.5777 C.3 0 **** -0.106
7318 C 136.077 89.5048 94.6873 C.2 0 **** 0
7319 C 136.174 88.1145 94.6029 C.2 0 **** 0
7320 C 137.441 87.507 94.6604 C.2 0 **** -0.1268
7321 C 138.571 88.2934 94.7703 C.2 0 **** -0.1268
7322 C 138.486 89.674 94.8116 C.2 0 **** 0
7323 C 137.231 90.2787 94.7513 C.2 0 **** 0
7324 C 127.848 74.5171 90.757 C.3 0 **** -0.106
7325 C 127.352 75.1301 89.4302 C.3 0 **** -0.159
7326 C 128.328 71.7341 90.0898 C.3 0 **** -0.159
7327 C 130.159 76.3329 91.0425 C.3 0 **** -0.159
7328 C 131.015 70.6865 90.1137 C.3 0 **** -0.159
7329 C 135.96 71.5317 90.0202 C.3 0 **** -0.159
7330 C 138.12 73.3794 89.6531 C.3 0 **** -0.159
7331 O 138.903 75.8243 90.4287 O.3 0 **** -0.452
7332 C 140.934 79.1791 87.3144 C.3 0 **** -0.159
7333 C 139.53 81.6609 87.1768 C.3 0 **** -0.159
7334 O 137.822 82.5054 91.5515 O.3 0 **** -0.452
7335 O 133.591 79.0402 92.1331 O.3 0 **** -0.452
7336 O 132.326 80.8991 93.2009 O.2 0 **** -0.419
7337 O 136.355 84.2931 92.5356 O.2 0 **** -0.419
7338 C 137.134 91.7952 94.7514 C.3 0 **** -0.159
7339 C 139.772 90.4707 94.9001 C.3 0 **** -0.159
7340 H 132.616 76.1557 90.1749 H 0 **** 0.053
7341 H 132.728 75.7482 91.9136 H 0 **** 0.053
7342 H 133.416 71.7946 91.3433 H 0 **** 0.053
7343 H 133.373 71.8335 89.5595 H 0 **** 0.053
7344 H 134.021 77.2943 91.181 H 0 **** 0.1268
7345 H 138.558 82.0327 89.5611 H 0 **** 0.053
7346 H 139.968 81.0017 89.8456 H 0 **** 0.053
7347 H 137.805 80.5165 87.7368 H 0 **** 0.053
7348 H 138.871 78.6261 87.0847 H 0 **** 0.053
7349 H 140.455 78.5246 89.6626 H 0 **** 0.053
7350 H 139.564 77.2458 88.8341 H 0 **** 0.053
7351 H 131.027 82.8141 93.8879 H 0 **** 0.053
7352 H 131.988 83.3498 95.2774 H 0 **** 0.053
7353 H 130.639 85.2093 94.3413 H 0 **** 0.053
7354 H 131.307 84.9656 92.725 H 0 **** 0.053
7355 H 130.686 87.8469 93.8562 H 0 **** 0.053
7356 H 130.569 86.9321 95.3704 H 0 **** 0.053
7357 H 131.426 88.7466 96.6932 H 0 **** 0.053
7358 H 130.195 89.4332 95.6215 H 0 **** 0.053
7359 H 132.199 90.9079 95.6011 H 0 **** 0.053
7360 H 132.06 90.1183 94.0172 H 0 **** 0.053
7361 H 133.872 89.2948 96.3619 H 0 **** 0.053
7362 H 134.465 90.3229 93.5067 H 0 **** 0.053
7363 H 134.721 91.1951 95.0387 H 0 **** 0.053
7364 H 137.545 86.4158 94.6122 H 0 **** 0.1268
7365 H 139.561 87.8103 94.8115 H 0 **** 0.1268
7366 H 127.754 75.271 91.5628 H 0 **** 0.053
7367 H 127.142 73.7269 91.0684 H 0 **** 0.053
7368 H 127.383 74.3885 88.6149 H 0 **** 0.053
7369 H 127.972 75.9903 89.1283 H 0 **** 0.053
7370 H 126.307 75.4893 89.5106 H 0 **** 0.053
7371 H 128.593 70.8984 89.4132 H 0 **** 0.053
7372 H 127.482 72.2369 89.5836 H 0 **** 0.053
7373 H 127.929 71.2842 91.0258 H 0 **** 0.053
7374 H 130.609 76.9393 90.225 H 0 **** 0.053
7375 H 130.645 76.6519 91.9895 H 0 **** 0.053
7376 H 129.116 76.6762 91.1129 H 0 **** 0.053
7377 H 131.973 70.3254 90.536 H 0 **** 0.053
7378 H 131.026 70.4306 89.031 H 0 **** 0.053
7379 H 130.243 70.0566 90.5943 H 0 **** 0.053
7380 H 136.946 71.1959 90.3869 H 0 **** 0.053
7381 H 135.878 71.2342 88.9496 H 0 **** 0.053
7382 H 135.233 70.9042 90.5844 H 0 **** 0.053
7383 H 138.619 74.053 88.9218 H 0 **** 0.053
7384 H 138.061 72.407 89.0925 H 0 **** 0.053
7385 H 138.841 73.2087 90.494 H 0 **** 0.053
7386 H 139.452 76.5568 90.72 H 0 **** 0.41
7387 H 141.005 79.6313 86.3162 H 0 **** 0.053
7388 H 141.337 78.1511 87.2391 H 0 **** 0.053
7389 H 141.594 79.7402 88.0052 H 0 **** 0.053
7390 H 139.002 82.6247 87.303 H 0 **** 0.053
7391 H 139.504 81.4075 86.1064 H 0 **** 0.053
7392 H 140.584 81.828 87.4761 H 0 **** 0.053
7393 H 137.575 83.3916 91.8553 H 0 **** 0.41
7394 H 132.86 79.4996 92.5721 H 0 **** 0.41
7395 H 136.494 92.1605 93.9266 H 0 **** 0.053
7396 H 138.108 92.302 94.6155 H 0 **** 0.053
7397 H 136.712 92.1793 95.7031 H 0 **** 0.053
7398 H 139.922 91.1105 94.0113 H 0 **** 0.053
7399 H 140.661 89.8188 94.9688 H 0 **** 0.053
7400 H 139.791 91.1226 95.7909 H 0 **** 0.053
7401 C 138.309 23.2203 56.3201 C.2 0 **** 0
7402 C 138.164 23.9306 57.5016 C.2 0 **** 0
7403 C 137.307 23.4675 58.4867 C.2 0 **** 0
7404 C 136.621 22.2959 58.2825 C.2 0 **** 0
7405 C 136.804 21.5503 57.124 C.2 0 **** 0
7406 C 137.66 22.0114 56.145 C.2 0 **** 0
7407 C 135.659 21.7758 59.3318 C.3 0 **** -0.106
7408 C 135.341 22.6556 60.5333 C.2 0 **** 0
7409 C 136.019 23.8241 60.743 C.2 0 **** 0
7410 C 137.126 24.2541 59.7824 C.3 0 **** -0.106
7411 C 135.688 24.6256 61.8401 C.2 0 **** 0
7412 C 134.638 24.297 62.675 C.2 0 **** 0
7413 C 134.018 23.0623 62.5223 C.2 0 **** 0
7414 C 134.35 22.2395 61.4393 C.2 0 **** 0
7415 C 133.692 21.0333 61.2537 C.2 0 **** -0.1268
7416 C 132.607 20.6164 61.997 C.2 0 **** 0
7417 C 132.198 21.5572 63.0076 C.2 0 **** 0
7418 C 133.028 22.6133 63.392 C.2 0 **** 0.042
7419 C 130.946 21.2645 63.8582 C.3 0 **** 0
7420 C 130.201 19.9475 63.6266 C.3 0 **** 0
7421 C 130.849 18.9141 62.6833 C.2 0 **** 0
7422 C 131.984 19.2686 61.8829 C.2 0 **** 0
7423 C 128.677 20.0272 63.8573 C.3 0 **** -0.106
7424 C 128.059 21.2578 63.1859 C.3 0 **** -0.053
7425 C 128.659 22.583 63.7477 C.3 0 **** -0.053
7426 C 130.05 22.3998 64.4091 C.3 0 **** -0.106
7427 C 132.548 18.2288 61.1161 C.2 0 **** 0.042
7428 C 132.004 16.9621 61.1308 C.2 0 **** 0.052
7429 C 130.921 16.6517 61.9401 C.2 0 **** 0.052
7430 C 130.389 17.6117 62.7595 C.2 0 **** 0.042
7431 C 130.314 15.2742 61.984 C.2 0 **** 0.367
7432 C 130.937 14.2451 61.1006 C.2 0 **** 0
7433 C 131.991 14.5331 60.3284 C.2 0 **** 0
7434 C 132.605 15.8819 60.2677 C.2 0 **** 0.367
7435 C 132.609 13.4883 59.4276 C.3 0 **** -0.106
7436 C 131.489 12.5673 58.881 C.3 0 **** -0.106
7437 C 130.637 12.0063 60.0197 C.2 0 **** 0
7438 C 130.35 12.8453 61.1202 C.2 0 **** 0.2405
7439 N 129.582 12.4339 62.1519 N.2 0 **** -0.481
7440 C 129.017 11.2337 62.0702 C.2 0 **** 0.2405
7441 C 129.29 10.337 61.0111 C.2 0 **** 0
7442 C 130.118 10.7362 59.992 C.2 0 **** 0
7443 C 130.428 9.82017 58.8148 C.3 0 **** -0.106
7444 C 130.066 8.35527 59.0888 C.3 0 **** -0.106
7445 C 128.685 8.2572 59.7285 C.3 0 **** -0.106
7446 C 128.701 8.95133 61.1037 C.3 0 **** -0.053
7447 C 127.278 9.0223 61.7173 C.3 0 **** -0.106
7448 C 127.318 9.79244 63.0102 C.2 0 **** 0
7449 C 128.166 10.8918 63.1519 C.2 0 **** 0
7450 C 128.152 11.6237 64.3528 C.2 0 **** -0.1268
7451 C 127.28 11.2635 65.362 C.2 0 **** -0.1268
7452 C 126.406 10.2013 65.2127 C.2 0 **** 0
7453 C 126.416 9.47628 64.0214 C.2 0 **** 0
7454 C 137.91 21.1901 54.9058 C.3 0 **** -0.106
7455 C 136.825 21.4482 53.8385 C.3 0 **** -0.159
7456 C 139.186 23.7762 55.2289 C.3 0 **** -0.159
7457 C 136.026 20.2621 56.9819 C.3 0 **** -0.159
7458 C 138.931 25.2128 57.7167 C.3 0 **** -0.159
7459 C 136.498 25.9049 62.0502 C.3 0 **** -0.159
7460 C 134.229 25.3254 63.7029 C.3 0 **** -0.159
7461 O 132.792 23.2396 64.5833 O.3 0 **** -0.452
7462 C 127.79 23.2491 64.8165 C.3 0 **** -0.159
7463 C 126.537 21.1559 63.3321 C.3 0 **** -0.159
7464 O 129.395 17.3501 63.663 O.3 0 **** -0.452
7465 O 133.649 18.4574 60.3574 O.3 0 **** -0.452
7466 O 133.54 16.0996 59.5681 O.2 0 **** -0.419
7467 O 129.354 15.0457 62.6618 O.2 0 **** -0.419
7468 C 125.428 8.33685 63.8345 C.3 0 **** -0.159
7469 C 125.457 9.88601 66.3518 C.3 0 **** -0.159
7470 H 134.695 21.5615 58.8149 H 0 **** 0.053
7471 H 136.044 20.7958 59.7057 H 0 **** 0.053
7472 H 138.097 24.2343 60.3342 H 0 **** 0.053
7473 H 136.942 25.3169 59.5101 H 0 **** 0.053
7474 H 134.06 20.4484 60.441 H 0 **** 0.1268
7475 H 128.17 19.1362 63.4831 H 0 **** 0.053
7476 H 128.535 20.0726 64.9395 H 0 **** 0.053
7477 H 128.297 21.2073 62.108 H 0 **** 0.053
7478 H 128.766 23.2768 62.9036 H 0 **** 0.053
7479 H 129.913 22.1312 65.4605 H 0 **** 0.053
7480 H 130.569 23.3657 64.3827 H 0 **** 0.053
7481 H 133.161 13.93 58.5782 H 0 **** 0.053
7482 H 133.341 12.906 60.0139 H 0 **** 0.053
7483 H 131.976 11.7868 58.2714 H 0 **** 0.053
7484 H 130.861 13.1519 58.1758 H 0 **** 0.053
7485 H 129.868 10.1654 57.9246 H 0 **** 0.053
7486 H 131.499 9.85562 58.5458 H 0 **** 0.053
7487 H 130.811 7.90762 59.7736 H 0 **** 0.053
7488 H 130.108 7.76504 58.1544 H 0 **** 0.053
7489 H 128.37 7.20248 59.8439 H 0 **** 0.053
7490 H 127.937 8.74359 59.0765 H 0 **** 0.053
7491 H 129.338 8.3337 61.7833 H 0 **** 0.053
7492 H 126.595 9.52414 60.9939 H 0 **** 0.053
7493 H 126.897 7.98479 61.838 H 0 **** 0.053
7494 H 128.82 12.4821 64.4968 H 0 **** 0.1268
7495 H 127.271 11.8435 66.299 H 0 **** 0.1268
7496 H 137.953 20.1053 55.1249 H 0 **** 0.053
7497 H 138.9 21.3963 54.462 H 0 **** 0.053
7498 H 136.791 22.5138 53.5571 H 0 **** 0.053
7499 H 135.825 21.1636 54.2035 H 0 **** 0.053
7500 H 137.015 20.8688 52.9127 H 0 **** 0.053
7501 H 139.222 24.8833 55.2247 H 0 **** 0.053
7502 H 138.831 23.5111 54.2147 H 0 **** 0.053
7503 H 140.235 23.4168 55.3154 H 0 **** 0.053
7504 H 134.928 20.4453 56.9867 H 0 **** 0.053
7505 H 136.242 19.5553 57.812 H 0 **** 0.053
7506 H 136.22 19.7016 56.0552 H 0 **** 0.053
7507 H 139.098 25.4556 58.7841 H 0 **** 0.053
7508 H 138.406 26.0849 57.2684 H 0 **** 0.053
7509 H 139.946 25.1771 57.2761 H 0 **** 0.053
7510 H 136.602 26.1711 63.1169 H 0 **** 0.053
7511 H 136.043 26.7767 61.5271 H 0 **** 0.053
7512 H 137.549 25.8266 61.6881 H 0 **** 0.053
7513 H 133.123 25.4176 63.7856 H 0 **** 0.053
7514 H 134.548 26.3778 63.4693 H 0 **** 0.053
7515 H 134.621 25.105 64.7299 H 0 **** 0.053
7516 H 132.284 22.6603 65.1571 H 0 **** 0.41
7517 H 126.82 23.5648 64.4118 H 0 **** 0.053
7518 H 128.289 24.1533 65.213 H 0 **** 0.053
7519 H 127.613 22.5697 65.6735 H 0 **** 0.053
7520 H 126.159 20.2341 62.8509 H 0 **** 0.053
7521 H 126.031 22.0089 62.8556 H 0 **** 0.053
7522 H 126.233 21.1128 64.3969 H 0 **** 0.053
7523 H 129.084 16.444 63.5175 H 0 **** 0.41
7524 H 133.886 17.658 59.8641 H 0 **** 0.41
7525 H 124.885 8.4245 62.8749 H 0 **** 0.053
7526 H 124.644 8.29674 64.6147 H 0 **** 0.053
7527 H 125.933 7.34882 63.8481 H 0 **** 0.053
7528 H 124.4 10.0127 66.0545 H 0 **** 0.053
7529 H 125.617 10.5467 67.2219 H 0 **** 0.053
7530 H 125.581 8.85128 66.7164 H 0 **** 0.053
7531 C 134.224 5.60198 38.8272 C.2 0 **** 0
7532 C 133.465 5.19105 39.9118 C.2 0 **** 0
7533 C 132.308 4.45608 39.7085 C.2 0 **** 0
7534 C 131.936 4.13109 38.4275 C.2 0 **** 0
7535 C 132.722 4.49208 37.3396 C.2 0 **** 0
7536 C 133.875 5.22155 37.5439 C.2 0 **** 0
7537 C 130.664 3.34804 38.1719 C.3 0 **** -0.106
7538 C 129.726 3.07647 39.3398 C.2 0 **** 0
7539 C 130.088 3.39781 40.6183 C.2 0 **** 0
7540 C 131.456 4.01669 40.8966 C.3 0 **** -0.106
7541 C 129.195 3.16118 41.6684 C.2 0 **** 0
7542 C 127.924 2.67812 41.4304 C.2 0 **** 0
7543 C 127.593 2.25734 40.1473 C.2 0 **** 0
7544 C 128.483 2.47024 39.0875 C.2 0 **** 0
7545 C 128.131 2.10232 37.7975 C.2 0 **** -0.1268
7546 C 126.882 1.64565 37.4321 C.2 0 **** 0
7547 C 125.945 1.58046 38.5235 C.2 0 **** 0
7548 C 126.372 1.65782 39.8516 C.2 0 **** 0.042
7549 C 124.484 1.1707 38.2486 C.3 0 **** 0
7550 C 124.09 0.795075 36.8176 C.3 0 **** 0
7551 C 125.217 0.68259 35.7709 C.2 0 **** 0
7552 C 126.544 1.12942 36.0767 C.2 0 **** 0
7553 C 122.637 1.15295 36.4418 C.3 0 **** -0.106
7554 C 122.27 2.57378 36.8776 C.3 0 **** -0.053
7555 C 122.376 2.753 38.4219 C.3 0 **** -0.053
7556 C 123.31 1.71546 39.0973 C.3 0 **** -0.106
7557 C 127.515 0.905725 35.0801 C.2 0 **** 0.042
7558 C 127.177 0.318076 33.8795 C.2 0 **** 0.052
7559 C 125.887 -0.125541 33.632 C.2 0 **** 0.052
7560 C 124.928 0.00055585 34.6025 C.2 0 **** 0.042
7561 C 125.492 -0.78199 32.3349 C.2 0 **** 0.367
7562 C 126.568 -0.930999 31.3119 C.2 0 **** 0
7563 C 127.82 -0.519289 31.5492 C.2 0 **** 0
7564 C 128.23 0.13004 32.8175 C.2 0 **** 0.367
7565 C 128.902 -0.663578 30.5039 C.3 0 **** -0.106
7566 C 128.28 -0.450231 29.1012 C.3 0 **** -0.106
7567 C 127.068 -1.35939 28.896 C.2 0 **** 0
7568 C 126.206 -1.58888 29.9927 C.2 0 **** 0.2405
7569 N 125.1 -2.35544 29.8858 N.2 0 **** -0.481
7570 C 124.781 -2.82754 28.6843 C.2 0 **** 0.2405
7571 C 125.616 -2.65589 27.5555 C.2 0 **** 0
7572 C 126.771 -1.92548 27.6814 C.2 0 **** 0
7573 C 127.696 -1.69047 26.4939 C.3 0 **** -0.106
7574 C 127.42 -2.64495 25.3258 C.3 0 **** -0.106
7575 C 125.922 -2.73772 25.0559 C.3 0 **** -0.106
7576 C 125.216 -3.35112 26.2782 C.3 0 **** -0.053
7577 C 123.673 -3.32258 26.1207 C.3 0 **** -0.106
7578 C 123.018 -3.84079 27.3744 C.2 0 **** 0
7579 C 123.57 -3.56231 28.6264 C.2 0 **** 0
7580 C 122.912 -4.01443 29.7848 C.2 0 **** -0.1268
7581 C 121.721 -4.70436 29.6703 C.2 0 **** -0.1268
7582 C 121.147 -4.94815 28.4351 C.2 0 **** 0
7583 C 121.794 -4.49564 27.2853 C.2 0 **** 0
7584 C 134.765 5.57687 36.3807 C.3 0 **** -0.106
7585 C 134.279 6.86352 35.6808 C.3 0 **** -0.159
7586 C 135.437 6.46546 39.0602 C.3 0 **** -0.159
7587 C 132.255 4.08112 35.9623 C.3 0 **** -0.159
7588 C 133.889 5.54826 41.3154 C.3 0 **** -0.159
7589 C 129.661 3.50605 43.0836 C.3 0 **** -0.159
7590 C 126.968 2.65207 42.6001 C.3 0 **** -0.159
7591 O 125.539 1.21693 40.8412 O.3 0 **** -0.452
7592 C 121.038 2.62773 39.1541 C.3 0 **** -0.159
7593 C 120.88 2.88413 36.3172 C.3 0 **** -0.159
7594 O 123.667 -0.515127 34.4728 O.3 0 **** -0.452
7595 O 128.809 1.25414 35.2948 O.3 0 **** -0.452
7596 O 129.352 0.482673 32.9919 O.2 0 **** -0.419
7597 O 124.361 -1.12068 32.1359 O.2 0 **** -0.419
7598 C 121.146 -4.71925 25.9293 C.3 0 **** -0.159
7599 C 119.821 -5.68119 28.3908 C.3 0 **** -0.159
7600 H 130.083 3.90881 37.4037 H 0 **** 0.053
7601 H 130.942 2.36962 37.7088 H 0 **** 0.053
7602 H 132.055 3.28965 41.4971 H 0 **** 0.053
7603 H 131.299 4.90558 41.5465 H 0 **** 0.053
7604 H 128.898 2.24447 37.0702 H 0 **** 0.1268
7605 H 122.468 1.06449 35.367 H 0 **** 0.053
7606 H 122.003 0.422613 36.949 H 0 **** 0.053
7607 H 122.984 3.26937 36.4023 H 0 **** 0.053
7608 H 122.782 3.75618 38.6069 H 0 **** 0.053
7609 H 122.732 0.81957 39.34 H 0 **** 0.053
7610 H 123.666 2.14293 40.0426 H 0 **** 0.053
7611 H 129.73 0.0541537 30.6453 H 0 **** 0.053
7612 H 129.339 -1.67376 30.5861 H 0 **** 0.053
7613 H 129.08 -0.612502 28.3594 H 0 **** 0.053
7614 H 127.987 0.616719 29.0003 H 0 **** 0.053
7615 H 127.578 -0.648913 26.1383 H 0 **** 0.053
7616 H 128.757 -1.8076 26.7786 H 0 **** 0.053
7617 H 127.805 -3.65373 25.5685 H 0 **** 0.053
7618 H 127.962 -2.31488 24.4198 H 0 **** 0.053
7619 H 125.714 -3.35106 24.1583 H 0 **** 0.053
7620 H 125.514 -1.73046 24.8579 H 0 **** 0.053
7621 H 125.535 -4.41743 26.3311 H 0 **** 0.053
7622 H 123.349 -2.27484 25.9262 H 0 **** 0.053
7623 H 123.403 -3.90747 25.2145 H 0 **** 0.053
7624 H 123.336 -3.82425 30.7782 H 0 **** 0.1268
7625 H 121.211 -5.05392 30.5814 H 0 **** 0.1268
7626 H 134.826 4.75944 35.636 H 0 **** 0.053
7627 H 135.817 5.71634 36.6876 H 0 **** 0.053
7628 H 134.257 7.71304 36.3833 H 0 **** 0.053
7629 H 133.264 6.73882 35.2688 H 0 **** 0.053
7630 H 134.943 7.1479 34.8401 H 0 **** 0.053
7631 H 135.34 7.11263 39.9539 H 0 **** 0.053
7632 H 135.626 7.173 38.2306 H 0 **** 0.053
7633 H 136.361 5.86069 39.192 H 0 **** 0.053
7634 H 131.267 4.53173 35.7146 H 0 **** 0.053
7635 H 132.139 2.97916 35.8761 H 0 **** 0.053
7636 H 132.92 4.37651 35.1373 H 0 **** 0.053
7637 H 133.511 4.84701 42.0841 H 0 **** 0.053
7638 H 133.535 6.5625 41.6049 H 0 **** 0.053
7639 H 134.989 5.53412 41.4405 H 0 **** 0.053
7640 H 129.225 2.8391 43.848 H 0 **** 0.053
7641 H 129.403 4.55359 43.3615 H 0 **** 0.053
7642 H 130.76 3.39802 43.2247 H 0 **** 0.053
7643 H 125.949 2.99371 42.3139 H 0 **** 0.053
7644 H 127.235 3.34795 43.4418 H 0 **** 0.053
7645 H 126.861 1.63584 43.0611 H 0 **** 0.053
7646 H 124.892 0.612312 40.4681 H 0 **** 0.41
7647 H 120.336 3.41926 38.8585 H 0 **** 0.053
7648 H 121.187 2.71183 40.2475 H 0 **** 0.053
7649 H 120.564 1.6451 38.962 H 0 **** 0.053
7650 H 120.88 2.8168 35.2132 H 0 **** 0.053
7651 H 120.562 3.90198 36.5864 H 0 **** 0.053
7652 H 120.124 2.16212 36.6858 H 0 **** 0.053
7653 H 123.563 -0.833793 33.5635 H 0 **** 0.41
7654 H 129.336 1.07887 34.5009 H 0 **** 0.41
7655 H 121.105 -3.7838 25.3405 H 0 **** 0.053
7656 H 120.099 -5.07495 25.9909 H 0 **** 0.053
7657 H 121.698 -5.47259 25.33 H 0 **** 0.053
7658 H 119.017 -5.05197 27.967 H 0 **** 0.053
7659 H 119.481 -5.9864 29.396 H 0 **** 0.053
7660 H 119.881 -6.60279 27.7859 H 0 **** 0.053
7661 C 118.453 68.9339 50.4793 C.2 0 **** 0
7662 C 118.335 70.2457 50.9113 C.2 0 **** 0
7663 C 118.94 71.2671 50.197 C.2 0 **** 0
7664 C 119.64 70.9631 49.0557 C.2 0 **** 0
7665 C 119.716 69.6574 48.5866 C.2 0 **** 0
7666 C 119.11 68.6423 49.2976 C.2 0 **** 0
7667 C 120.332 72.0549 48.2652 C.3 0 **** -0.106
7668 C 120.378 73.4616 48.847 C.2 0 **** 0
7669 C 119.685 73.7709 49.9844 C.2 0 **** 0
7670 C 118.831 72.7117 50.6772 C.3 0 **** -0.106
7671 C 119.768 75.0642 50.5107 C.2 0 **** 0
7672 C 120.598 76.0143 49.9478 C.2 0 **** 0
7673 C 121.225 75.7246 48.7413 C.2 0 **** 0
7674 C 121.132 74.4453 48.1857 C.2 0 **** 0
7675 C 121.801 74.1446 47.0083 C.2 0 **** -0.1268
7676 C 122.684 74.9969 46.377 C.2 0 **** 0
7677 C 122.87 76.2493 47.0549 C.2 0 **** 0
7678 C 122 76.6564 48.0643 C.2 0 **** 0.042
7679 C 123.889 77.2719 46.5128 C.3 0 **** 0
7680 C 124.648 76.928 45.2285 C.3 0 **** 0
7681 C 124.22 75.66 44.462 C.2 0 **** 0
7682 C 123.301 74.7285 45.0484 C.2 0 **** 0
7683 C 126.082 77.4979 45.1641 C.3 0 **** -0.106
7684 C 126.851 77.2675 46.4693 C.3 0 **** -0.053
7685 C 126.156 77.9636 47.6785 C.3 0 **** -0.053
7686 C 124.65 78.2467 47.4443 C.3 0 **** -0.106
7687 C 122.914 73.6465 44.2316 C.2 0 **** 0.042
7688 C 123.426 73.4993 42.9603 C.2 0 **** 0.052
7689 C 124.292 74.4378 42.4193 C.2 0 **** 0.052
7690 C 124.634 75.5464 43.1475 C.2 0 **** 0.042
7691 C 124.857 74.3079 41.03 C.2 0 **** 0.367
7692 C 124.438 73.1042 40.2533 C.2 0 **** 0
7693 C 123.591 72.2025 40.7632 C.2 0 **** 0
7694 C 123.024 72.3088 42.1285 C.2 0 **** 0.367
7695 C 123.182 70.9798 39.9743 C.3 0 **** -0.106
7696 C 124.387 70.5033 39.1253 C.3 0 **** -0.106
7697 C 124.951 71.6474 38.2825 C.2 0 **** 0
7698 C 124.989 72.9421 38.8481 C.2 0 **** 0.2405
7699 N 125.496 74.0003 38.1794 N.2 0 **** -0.481
7700 C 126.052 73.7803 36.9925 C.2 0 **** 0.2405
7701 C 126.018 72.5158 36.3606 C.2 0 **** 0
7702 C 125.451 71.4544 37.019 C.2 0 **** 0
7703 C 125.411 70.0679 36.3951 C.3 0 **** -0.106
7704 C 125.675 70.079 34.8859 C.3 0 **** -0.106
7705 C 126.872 70.9677 34.567 C.3 0 **** -0.106
7706 C 126.553 72.4249 34.9529 C.3 0 **** -0.053
7707 C 127.8 73.3349 34.8042 C.3 0 **** -0.106
7708 C 127.476 74.7252 35.2824 C.2 0 **** 0
7709 C 126.631 74.9184 36.3763 C.2 0 **** 0
7710 C 126.381 76.2244 36.8336 C.2 0 **** -0.1268
7711 C 126.996 77.2942 36.2137 C.2 0 **** -0.1268
7712 C 127.869 77.1081 35.1559 C.2 0 **** 0
7713 C 128.121 75.8134 34.7033 C.2 0 **** 0
7714 C 119.138 67.2286 48.7762 C.3 0 **** -0.106
7715 C 120.44 66.5097 49.1888 C.3 0 **** -0.159
7716 C 117.854 67.8274 51.3086 C.3 0 **** -0.159
7717 C 120.49 69.4078 47.3129 C.3 0 **** -0.159
7718 C 117.555 70.5666 52.1629 C.3 0 **** -0.159
7719 C 118.947 75.3711 51.7639 C.3 0 **** -0.159
7720 C 120.773 77.3092 50.7062 C.3 0 **** -0.159
7721 O 122.002 77.9678 48.4256 O.3 0 **** -0.452
7722 C 126.767 79.3168 48.0475 C.3 0 **** -0.159
7723 C 128.299 77.7176 46.2451 C.3 0 **** -0.159
7724 O 125.39 76.5678 42.6382 O.3 0 **** -0.452
7725 O 122.014 72.7373 44.6839 O.3 0 **** -0.452
7726 O 122.273 71.4884 42.548 O.2 0 **** -0.419
7727 O 125.633 75.1132 40.6033 O.2 0 **** -0.419
7728 C 129.111 75.5994 33.5712 C.3 0 **** -0.159
7729 C 128.53 78.3283 34.5471 C.3 0 **** -0.159
7730 H 121.386 71.7284 48.1074 H 0 **** 0.053
7731 H 119.86 72.1089 47.2534 H 0 **** 0.053
7732 H 117.761 73.0198 50.5998 H 0 **** 0.053
7733 H 119.085 72.7292 51.7599 H 0 **** 0.053
7734 H 121.62 73.1609 46.6337 H 0 **** 0.1268
7735 H 126.65 77.0557 44.3442 H 0 **** 0.053
7736 H 125.975 78.5675 44.9695 H 0 **** 0.053
7737 H 126.864 76.18 46.6646 H 0 **** 0.053
7738 H 126.251 77.2912 48.5416 H 0 **** 0.053
7739 H 124.54 79.2159 46.95 H 0 **** 0.053
7740 H 124.169 78.3236 48.4256 H 0 **** 0.053
7741 H 122.842 70.1492 40.6199 H 0 **** 0.053
7742 H 122.329 71.2468 39.3266 H 0 **** 0.053
7743 H 124.046 69.6432 38.5249 H 0 **** 0.053
7744 H 125.165 70.1012 39.8078 H 0 **** 0.053
7745 H 126.159 69.4183 36.8864 H 0 **** 0.053
7746 H 124.431 69.5951 36.5565 H 0 **** 0.053
7747 H 124.787 70.4667 34.3512 H 0 **** 0.053
7748 H 125.837 69.0507 34.5125 H 0 **** 0.053
7749 H 127.141 70.9127 33.4944 H 0 **** 0.053
7750 H 127.754 70.619 35.1347 H 0 **** 0.053
7751 H 125.77 72.7939 34.2455 H 0 **** 0.053
7752 H 128.634 72.9074 35.4059 H 0 **** 0.053
7753 H 128.131 73.3028 33.7435 H 0 **** 0.053
7754 H 125.708 76.4039 37.6814 H 0 **** 0.1268
7755 H 126.8 78.3146 36.5796 H 0 **** 0.1268
7756 H 119.035 67.1876 47.6744 H 0 **** 0.053
7757 H 118.278 66.6354 49.1323 H 0 **** 0.053
7758 H 120.55 66.4859 50.2856 H 0 **** 0.053
7759 H 121.328 67.013 48.7711 H 0 **** 0.053
7760 H 120.459 65.4603 48.8323 H 0 **** 0.053
7761 H 117.836 68.0618 52.3909 H 0 **** 0.053
7762 H 118.428 66.8835 51.2435 H 0 **** 0.053
7763 H 116.809 67.5974 51.005 H 0 **** 0.053
7764 H 121.561 69.6937 47.4225 H 0 **** 0.053
7765 H 120.084 69.993 46.4599 H 0 **** 0.053
7766 H 120.506 68.361 46.9751 H 0 **** 0.053
7767 H 117.154 71.5983 52.182 H 0 **** 0.053
7768 H 118.18 70.4492 53.0762 H 0 **** 0.053
7769 H 116.666 69.9186 52.2846 H 0 **** 0.053
7770 H 118.608 76.4217 51.8025 H 0 **** 0.053
7771 H 119.52 75.1673 52.6974 H 0 **** 0.053
7772 H 118.005 74.7799 51.83 H 0 **** 0.053
7773 H 121.831 77.6515 50.7151 H 0 **** 0.053
7774 H 120.527 77.2522 51.8014 H 0 **** 0.053
7775 H 120.155 78.1494 50.2956 H 0 **** 0.053
7776 H 122.31 78.504 47.6907 H 0 **** 0.41
7777 H 127.809 79.2149 48.3799 H 0 **** 0.053
7778 H 126.202 79.7834 48.8765 H 0 **** 0.053
7779 H 126.735 80.0195 47.1917 H 0 **** 0.053
7780 H 128.765 77.1382 45.4261 H 0 **** 0.053
7781 H 128.91 77.565 47.1472 H 0 **** 0.053
7782 H 128.353 78.7863 45.957 H 0 **** 0.053
7783 H 125.724 76.2905 41.7715 H 0 **** 0.41
7784 H 121.891 72.0361 44.0269 H 0 **** 0.41
7785 H 129.859 74.8257 33.8276 H 0 **** 0.053
7786 H 129.697 76.5034 33.3172 H 0 **** 0.053
7787 H 128.604 75.2827 32.636 H 0 **** 0.053
7788 H 129.629 78.3049 34.6687 H 0 **** 0.053
7789 H 128.184 79.2664 35.0157 H 0 **** 0.053
7790 H 128.314 78.418 33.468 H 0 **** 0.053
7791 C 144.393 97.9123 46.8609 C.2 0 **** 0
7792 C 144.751 96.6194 46.5121 C.2 0 **** 0
7793 C 143.788 95.6243 46.46 C.2 0 **** 0
7794 C 142.482 95.9392 46.7427 C.2 0 **** 0
7795 C 142.108 97.2442 47.0389 C.2 0 **** 0
7796 C 143.067 98.2346 47.0876 C.2 0 **** 0
7797 C 141.411 94.8677 46.7177 C.3 0 **** -0.106
7798 C 141.833 93.4155 46.5399 C.2 0 **** 0
7799 C 143.132 93.0939 46.2593 C.2 0 **** 0
7800 C 144.178 94.194 46.0967 C.3 0 **** -0.106
7801 C 143.496 91.75 46.1284 C.2 0 **** 0
7802 C 142.584 90.7367 46.3505 C.2 0 **** 0
7803 C 141.246 91.0643 46.5346 C.2 0 **** 0
7804 C 140.862 92.4056 46.6505 C.2 0 **** 0
7805 C 139.535 92.7313 46.8918 C.2 0 **** -0.1268
7806 C 138.545 91.8106 47.1661 C.2 0 **** 0
7807 C 139.008 90.4473 47.1853 C.2 0 **** 0
7808 C 140.252 90.0971 46.6545 C.2 0 **** 0.042
7809 C 138.031 89.3169 47.5634 C.3 0 **** 0
7810 C 136.575 89.6836 47.862 C.3 0 **** 0
7811 C 136.133 91.1362 47.5943 C.2 0 **** 0
7812 C 137.101 92.15 47.2956 C.2 0 **** 0
7813 C 135.893 88.7843 48.9151 C.3 0 **** -0.106
7814 C 136.782 88.5663 50.1439 C.3 0 **** -0.053
7815 C 138.123 87.8651 49.7695 C.3 0 **** -0.053
7816 C 138.508 88.0285 48.2757 C.3 0 **** -0.106
7817 C 136.586 93.4252 46.9887 C.2 0 **** 0.042
7818 C 135.228 93.6649 47.0099 C.2 0 **** 0.052
7819 C 134.321 92.6505 47.2766 C.2 0 **** 0.052
7820 C 134.774 91.3779 47.5044 C.2 0 **** 0.042
7821 C 132.832 92.8815 47.2949 C.2 0 **** 0.367
7822 C 132.373 94.2732 47.0128 C.2 0 **** 0
7823 C 133.241 95.2541 46.7394 C.2 0 **** 0
7824 C 134.71 95.0501 46.7174 C.2 0 **** 0.367
7825 C 132.768 96.6634 46.4662 C.3 0 **** -0.106
7826 C 131.532 96.9613 47.3514 C.3 0 **** -0.106
7827 C 130.462 95.8834 47.1776 C.2 0 **** 0
7828 C 130.878 94.5415 47.0229 C.2 0 **** 0.2405
7829 N 129.995 93.5287 46.8922 N.2 0 **** -0.481
7830 C 128.701 93.8107 47.0043 C.2 0 **** 0.2405
7831 C 128.221 95.1352 47.1293 C.2 0 **** 0
7832 C 129.12 96.1695 47.2029 C.2 0 **** 0
7833 C 128.66 97.6131 47.3616 C.3 0 **** -0.106
7834 C 127.173 97.8031 47.0353 C.3 0 **** -0.106
7835 C 126.338 96.7085 47.6917 C.3 0 **** -0.106
7836 C 126.726 95.3384 47.1039 C.3 0 **** -0.053
7837 C 126.023 94.1796 47.8588 C.3 0 **** -0.106
7838 C 126.502 92.8569 47.3226 C.2 0 **** 0
7839 C 127.831 92.6935 46.9295 C.2 0 **** 0
7840 C 128.267 91.4353 46.4762 C.2 0 **** -0.1268
7841 C 127.382 90.3739 46.4533 C.2 0 **** -0.1268
7842 C 126.074 90.5174 46.8814 C.2 0 **** 0
7843 C 125.642 91.7633 47.3347 C.2 0 **** 0
7844 C 142.671 99.6638 47.3577 C.3 0 **** -0.106
7845 C 142.56 99.9343 48.8733 C.3 0 **** -0.159
7846 C 145.463 98.9651 46.9888 C.3 0 **** -0.159
7847 C 140.648 97.5132 47.3221 C.3 0 **** -0.159
7848 C 146.189 96.2879 46.1967 C.3 0 **** -0.159
7849 C 144.953 91.444 45.7804 C.3 0 **** -0.159
7850 C 143.121 89.325 46.3868 C.3 0 **** -0.159
7851 O 140.493 88.7883 46.3435 O.3 0 **** -0.452
7852 C 138.122 86.3562 50.0227 C.3 0 **** -0.159
7853 C 135.956 87.8061 51.1888 C.3 0 **** -0.159
7854 O 133.935 90.3077 47.6635 O.3 0 **** -0.452
7855 O 137.422 94.4388 46.6523 O.3 0 **** -0.452
7856 O 135.451 95.9467 46.4721 O.2 0 **** -0.419
7857 O 132.076 91.9948 47.5673 O.2 0 **** -0.419
7858 C 124.22 91.9164 47.8475 C.3 0 **** -0.159
7859 C 125.172 89.2996 46.8563 C.3 0 **** -0.159
7860 H 140.858 94.9349 47.6831 H 0 **** 0.053
7861 H 140.679 95.1226 45.9124 H 0 **** 0.053
7862 H 144.526 94.1927 45.0357 H 0 **** 0.053
7863 H 145.059 93.9153 46.7165 H 0 **** 0.053
7864 H 139.33 93.778 46.8995 H 0 **** 0.1268
7865 H 134.942 89.2064 49.245 H 0 **** 0.053
7866 H 135.691 87.8331 48.4177 H 0 **** 0.053
7867 H 137.022 89.5592 50.5648 H 0 **** 0.053
7868 H 138.912 88.3215 50.3817 H 0 **** 0.053
7869 H 138.04 87.2271 47.6969 H 0 **** 0.053
7870 H 139.594 87.9046 48.1896 H 0 **** 0.053
7871 H 133.548 97.4212 46.6661 H 0 **** 0.053
7872 H 132.51 96.7478 45.3962 H 0 **** 0.053
7873 H 131.18 97.9747 47.0922 H 0 **** 0.053
7874 H 131.859 97.0176 48.4116 H 0 **** 0.053
7875 H 128.841 97.9423 48.403 H 0 **** 0.053
7876 H 129.235 98.2956 46.7107 H 0 **** 0.053
7877 H 127.023 97.7612 45.9397 H 0 **** 0.053
7878 H 126.831 98.8041 47.3582 H 0 **** 0.053
7879 H 125.256 96.8868 47.545 H 0 **** 0.053
7880 H 126.516 96.7073 48.7825 H 0 **** 0.053
7881 H 126.378 95.319 46.0421 H 0 **** 0.053
7882 H 126.256 94.2594 48.9449 H 0 **** 0.053
7883 H 124.924 94.3175 47.7644 H 0 **** 0.053
7884 H 129.302 91.2838 46.1461 H 0 **** 0.1268
7885 H 127.731 89.3899 46.1004 H 0 **** 0.1268
7886 H 141.713 99.9316 46.8703 H 0 **** 0.053
7887 H 143.384 100.384 46.9205 H 0 **** 0.053
7888 H 143.515 99.7286 49.3838 H 0 **** 0.053
7889 H 141.785 99.3037 49.3392 H 0 **** 0.053
7890 H 142.295 100.99 49.0813 H 0 **** 0.053
7891 H 146.441 98.55 47.3024 H 0 **** 0.053
7892 H 145.229 99.7239 47.7596 H 0 **** 0.053
7893 H 145.629 99.5089 46.0328 H 0 **** 0.053
7894 H 140.293 96.9454 48.2115 H 0 **** 0.053
7895 H 140 97.2184 46.4686 H 0 **** 0.053
7896 H 140.401 98.5638 47.5352 H 0 **** 0.053
7897 H 146.306 95.4093 45.5332 H 0 **** 0.053
7898 H 146.773 96.0718 47.1193 H 0 **** 0.053
7899 H 146.705 97.1101 45.6648 H 0 **** 0.053
7900 H 145.06 90.5285 45.1724 H 0 **** 0.053
7901 H 145.581 91.3195 46.6921 H 0 **** 0.053
7902 H 145.435 92.2364 45.1638 H 0 **** 0.053
7903 H 142.669 88.7274 47.2096 H 0 **** 0.053
7904 H 144.222 89.2442 46.598 H 0 **** 0.053
7905 H 142.947 88.7613 45.4334 H 0 **** 0.053
7906 H 139.657 88.3296 46.2243 H 0 **** 0.41
7907 H 138.004 86.1234 51.0893 H 0 **** 0.053
7908 H 139.077 85.9082 49.691 H 0 **** 0.053
7909 H 137.311 85.8545 49.4591 H 0 **** 0.053
7910 H 135.057 88.3848 51.4716 H 0 **** 0.053
7911 H 136.537 87.6286 52.1063 H 0 **** 0.053
7912 H 135.604 86.831 50.7979 H 0 **** 0.053
7913 H 133.026 90.6408 47.7129 H 0 **** 0.41
7914 H 136.917 95.2543 46.5136 H 0 **** 0.41
7915 H 124.197 92.4104 48.8368 H 0 **** 0.053
7916 H 123.692 90.9536 47.9859 H 0 **** 0.053
7917 H 123.596 92.5182 47.1546 H 0 **** 0.053
7918 H 124.836 89.0157 47.8701 H 0 **** 0.053
7919 H 125.681 88.4137 46.4371 H 0 **** 0.053
7920 H 124.273 89.4668 46.2384 H 0 **** 0.053
7921 C 116.581 98.561 35.5238 C.2 0 **** 0
7922 C 115.548 98.2985 36.4098 C.2 0 **** 0
7923 C 114.677 97.2492 36.1661 C.2 0 **** 0
7924 C 114.862 96.4695 35.0512 C.2 0 **** 0
7925 C 115.931 96.6905 34.1908 C.2 0 **** 0
7926 C 116.798 97.7343 34.4364 C.2 0 **** 0
7927 C 113.911 95.3304 34.7445 C.3 0 **** -0.106
7928 C 112.659 95.1739 35.5968 C.2 0 **** 0
7929 C 112.468 95.9473 36.7077 C.2 0 **** 0
7930 C 113.523 96.9689 37.1246 C.3 0 **** -0.106
7931 C 111.296 95.8003 37.4563 C.2 0 **** 0
7932 C 110.293 94.9408 37.0535 C.2 0 **** 0
7933 C 110.531 94.0834 35.9854 C.2 0 **** 0
7934 C 111.707 94.2054 35.2358 C.2 0 **** 0
7935 C 111.919 93.3889 34.1353 C.2 0 **** -0.1268
7936 C 110.98 92.5217 33.617 C.2 0 **** 0
7937 C 109.726 92.5314 34.3255 C.2 0 **** 0
7938 C 109.613 93.114 35.5904 C.2 0 **** 0.042
7939 C 108.553 91.6763 33.8073 C.3 0 **** 0
7940 C 108.78 90.8018 32.5716 C.3 0 **** 0
7941 C 110.218 90.6928 32.0255 C.2 0 **** 0
7942 C 111.252 91.554 32.5185 C.2 0 **** 0
7943 C 107.533 90.6198 31.6805 C.3 0 **** -0.106
7944 C 106.814 91.9478 31.423 C.3 0 **** -0.053
7945 C 106.316 92.6009 32.748 C.3 0 **** -0.053
7946 C 107.08 92.1073 34.0047 C.3 0 **** -0.106
7947 C 112.546 91.3177 32.0114 C.2 0 **** 0.042
7948 C 112.771 90.3308 31.0754 C.2 0 **** 0.052
7949 C 111.748 89.4996 30.6437 C.2 0 **** 0.052
7950 C 110.491 89.6423 31.1681 C.2 0 **** 0.042
7951 C 111.969 88.4059 29.6317 C.2 0 **** 0.367
7952 C 113.357 88.2591 29.1041 C.2 0 **** 0
7953 C 114.353 89.0474 29.5272 C.2 0 **** 0
7954 C 114.159 90.1303 30.5213 C.2 0 **** 0.367
7955 C 115.754 88.8995 28.9797 C.3 0 **** -0.106
7956 C 115.672 88.5082 27.4829 C.3 0 **** -0.106
7957 C 114.776 87.2851 27.2851 C.2 0 **** 0
7958 C 113.615 87.1661 28.0825 C.2 0 **** 0.2405
7959 N 112.759 86.13 27.9509 N.2 0 **** -0.481
7960 C 112.983 85.255 26.9756 C.2 0 **** 0.2405
7961 C 114.142 85.3028 26.1653 C.2 0 **** 0
7962 C 115.041 86.3243 26.3415 C.2 0 **** 0
7963 C 116.294 86.4379 25.4819 C.3 0 **** -0.106
7964 C 116.62 85.1409 24.7311 C.3 0 **** -0.106
7965 C 115.362 84.5633 24.0915 C.3 0 **** -0.106
7966 C 114.355 84.1719 25.1899 C.3 0 **** -0.053
7967 C 112.996 83.7353 24.5818 C.3 0 **** -0.106
7968 C 112.01 83.4565 25.6847 C.2 0 **** 0
7969 C 112.009 84.2335 26.8447 C.2 0 **** 0
7970 C 111.047 83.9839 27.8404 C.2 0 **** -0.1268
7971 C 110.102 82.9955 27.6453 C.2 0 **** -0.1268
7972 C 110.07 82.2498 26.48 C.2 0 **** 0
7973 C 111.021 82.498 25.4899 C.2 0 **** 0
7974 C 117.992 97.9554 33.5428 C.3 0 **** -0.106
7975 C 117.611 98.7916 32.3032 C.3 0 **** -0.159
7976 C 117.466 99.7545 35.7627 C.3 0 **** -0.159
7977 C 116.076 95.7773 32.9952 C.3 0 **** -0.159
7978 C 115.363 99.1584 37.6364 C.3 0 **** -0.159
7979 C 111.145 96.6642 38.7087 C.3 0 **** -0.159
7980 C 108.988 95.0043 37.8107 C.3 0 **** -0.159
7981 O 108.55 92.778 36.3805 O.3 0 **** -0.452
7982 C 104.838 92.3399 33.0467 C.3 0 **** -0.159
7983 C 105.698 91.6857 30.4044 C.3 0 **** -0.159
7984 O 109.462 88.7887 30.875 O.3 0 **** -0.452
7985 O 113.598 92.0531 32.4504 O.3 0 **** -0.452
7986 O 115.068 90.8099 30.873 O.2 0 **** -0.419
7987 O 111.059 87.7288 29.2495 O.2 0 **** -0.419
7988 C 110.964 81.7129 24.1901 C.3 0 **** -0.159
7989 C 108.984 81.2045 26.3251 C.3 0 **** -0.159
7990 H 113.578 95.4567 33.6882 H 0 **** 0.053
7991 H 114.486 94.3734 34.7849 H 0 **** 0.053
7992 H 113.959 96.6456 38.1006 H 0 **** 0.053
7993 H 113.002 97.9327 37.3177 H 0 **** 0.053
7994 H 112.87 93.5117 33.6685 H 0 **** 0.1268
7995 H 107.791 90.1727 30.7188 H 0 **** 0.053
7996 H 106.876 89.9287 32.2138 H 0 **** 0.053
7997 H 107.539 92.6377 30.9552 H 0 **** 0.053
7998 H 106.467 93.6845 32.6551 H 0 **** 0.053
7999 H 106.596 91.2022 34.3831 H 0 **** 0.053
8000 H 106.99 92.8766 34.781 H 0 **** 0.053
8001 H 116.351 89.824 29.08 H 0 **** 0.053
8002 H 116.278 88.1188 29.5581 H 0 **** 0.053
8003 H 116.706 88.3573 27.127 H 0 **** 0.053
8004 H 115.279 89.375 26.9094 H 0 **** 0.053
8005 H 116.159 87.2526 24.7446 H 0 **** 0.053
8006 H 117.178 86.7051 26.0883 H 0 **** 0.053
8007 H 117.039 84.3965 25.4349 H 0 **** 0.053
8008 H 117.4 85.3212 23.9686 H 0 **** 0.053
8009 H 115.598 83.6807 23.467 H 0 **** 0.053
8010 H 114.906 85.3149 23.4217 H 0 **** 0.053
8011 H 114.782 83.2977 25.7397 H 0 **** 0.053
8012 H 112.615 84.5494 23.9242 H 0 **** 0.053
8013 H 113.174 82.8581 23.9223 H 0 **** 0.053
8014 H 111.034 84.5691 28.7683 H 0 **** 0.1268
8015 H 109.349 82.808 28.4278 H 0 **** 0.1268
8016 H 118.45 97.0027 33.2121 H 0 **** 0.053
8017 H 118.818 98.4622 34.0699 H 0 **** 0.053
8018 H 117.201 99.7719 32.5975 H 0 **** 0.053
8019 H 116.853 98.2784 31.6887 H 0 **** 0.053
8020 H 118.488 98.9825 31.6531 H 0 **** 0.053
8021 H 116.945 100.586 36.2733 H 0 **** 0.053
8022 H 117.852 100.201 34.8277 H 0 **** 0.053
8023 H 118.342 99.4936 36.3911 H 0 **** 0.053
8024 H 115.195 95.847 32.3185 H 0 **** 0.053
8025 H 116.17 94.7121 33.2973 H 0 **** 0.053
8026 H 116.947 95.9836 32.3548 H 0 **** 0.053
8027 H 114.838 98.6426 38.4637 H 0 **** 0.053
8028 H 114.777 100.076 37.4084 H 0 **** 0.053
8029 H 116.326 99.4822 38.0752 H 0 **** 0.053
8030 H 110.564 96.1626 39.5022 H 0 **** 0.053
8031 H 110.646 97.6351 38.4866 H 0 **** 0.053
8032 H 112.116 96.9068 39.1975 H 0 **** 0.053
8033 H 108.108 94.9537 37.1317 H 0 **** 0.053
8034 H 108.813 95.9638 38.3697 H 0 **** 0.053
8035 H 108.873 94.1824 38.5644 H 0 **** 0.053
8036 H 108.188 91.9371 36.0888 H 0 **** 0.41
8037 H 104.184 92.7851 32.2848 H 0 **** 0.053
8038 H 104.556 92.7828 34.0209 H 0 **** 0.053
8039 H 104.625 91.2544 33.1056 H 0 **** 0.053
8040 H 106.117 91.2944 29.4584 H 0 **** 0.053
8041 H 105.149 92.6084 30.1655 H 0 **** 0.053
8042 H 104.977 90.9301 30.7755 H 0 **** 0.053
8043 H 109.753 88.1955 30.1662 H 0 **** 0.41
8044 H 114.402 91.8006 31.9728 H 0 **** 0.41
8045 H 111.003 82.3822 23.3104 H 0 **** 0.053
8046 H 110.037 81.1205 24.0696 H 0 **** 0.053
8047 H 111.806 80.9954 24.1064 H 0 **** 0.053
8048 H 108.309 81.4344 25.4807 H 0 **** 0.053
8049 H 108.346 81.1312 27.2234 H 0 **** 0.053
8050 H 109.403 80.1975 26.1548 H 0 **** 0.053
8051 C 132.435 75.9134 39.9924 C.2 0 **** 0
8052 C 133.167 74.7537 39.7904 C.2 0 **** 0
8053 C 134.147 74.3857 40.6989 C.2 0 **** 0
8054 C 134.369 75.1732 41.8013 C.2 0 **** 0
8055 C 133.602 76.3071 42.0388 C.2 0 **** 0
8056 C 132.625 76.6706 41.1346 C.2 0 **** 0
8057 C 135.449 74.8092 42.8008 C.3 0 **** -0.106
8058 C 136.389 73.6562 42.4749 C.2 0 **** 0
8059 C 136.174 72.8681 41.3786 C.2 0 **** 0
8060 C 134.97 73.1205 40.4734 C.3 0 **** -0.106
8061 C 137.069 71.8329 41.0886 C.2 0 **** 0
8062 C 138.207 71.6375 41.8464 C.2 0 **** 0
8063 C 138.37 72.3706 43.0161 C.2 0 **** 0
8064 C 137.474 73.3991 43.3306 C.2 0 **** 0
8065 C 137.668 74.1687 44.4676 C.2 0 **** -0.1268
8066 C 138.782 74.0917 45.2784 C.2 0 **** 0
8067 C 139.754 73.1248 44.84 C.2 0 **** 0
8068 C 139.432 72.1533 43.8889 C.2 0 **** 0.042
8069 C 141.089 72.9899 45.5997 C.3 0 **** 0
8070 C 141.315 73.8654 46.8348 C.3 0 **** 0
8071 C 140.125 74.7005 47.3482 C.2 0 **** 0
8072 C 138.93 74.8236 46.5668 C.2 0 **** 0
8073 C 142.784 74.2776 47.0653 C.3 0 **** -0.106
8074 C 143.449 74.7737 45.7774 C.3 0 **** -0.053
8075 C 143.469 73.6702 44.6763 C.3 0 **** -0.053
8076 C 142.396 72.57 44.8851 C.3 0 **** -0.106
8077 C 137.874 75.542 47.163 C.2 0 **** 0.042
8078 C 138.018 76.1081 48.4119 C.2 0 **** 0.052
8079 C 139.181 75.9432 49.1485 C.2 0 **** 0.052
8080 C 140.204 75.187 48.6406 C.2 0 **** 0.042
8081 C 139.361 76.5409 50.519 C.2 0 **** 0.367
8082 C 138.216 77.3331 51.0544 C.2 0 **** 0
8083 C 137.084 77.4833 50.3562 C.2 0 **** 0
8084 C 136.884 76.9057 49.0049 C.2 0 **** 0.367
8085 C 135.932 78.2967 50.9004 C.3 0 **** -0.106
8086 C 136.495 79.4917 51.7096 C.3 0 **** -0.106
8087 C 137.495 79.016 52.7635 C.2 0 **** 0
8088 C 138.363 77.9502 52.4338 C.2 0 **** 0.2405
8089 N 139.294 77.4918 53.298 N.2 0 **** -0.481
8090 C 139.434 78.1245 54.4586 C.2 0 **** 0.2405
8091 C 138.571 79.1698 54.8628 C.2 0 **** 0
8092 C 137.598 79.6062 53.9986 C.2 0 **** 0
8093 C 136.665 80.7536 54.3672 C.3 0 **** -0.106
8094 C 136.676 81.0752 55.8668 C.3 0 **** -0.106
8095 C 138.105 81.1135 56.393 C.3 0 **** -0.106
8096 C 138.733 79.7096 56.2644 C.3 0 **** -0.053
8097 C 140.23 79.7467 56.6258 C.3 0 **** -0.106
8098 C 140.878 78.4153 56.3745 C.2 0 **** 0
8099 C 140.475 77.6372 55.2891 C.2 0 **** 0
8100 C 141.108 76.4037 55.0501 C.2 0 **** -0.1268
8101 C 142.138 75.9931 55.8755 C.2 0 **** -0.1268
8102 C 142.577 76.7829 56.9235 C.2 0 **** 0
8103 C 141.954 78.0097 57.1575 C.2 0 **** 0
8104 C 131.75 77.8679 41.4027 C.3 0 **** -0.106
8105 C 132.431 79.1707 40.9324 C.3 0 **** -0.159
8106 C 131.428 76.3401 38.9562 C.3 0 **** -0.159
8107 C 133.896 77.1115 43.2841 C.3 0 **** -0.159
8108 C 132.907 73.8925 38.5786 C.3 0 **** -0.159
8109 C 136.766 70.9586 39.8714 C.3 0 **** -0.159
8110 C 139.21 70.6315 41.3337 C.3 0 **** -0.159
8111 O 140.224 71.0452 43.7815 O.3 0 **** -0.452
8112 C 144.8 72.9212 44.5782 C.3 0 **** -0.159
8113 C 144.839 75.308 46.144 C.3 0 **** -0.159
8114 O 141.333 74.8883 49.3551 O.3 0 **** -0.452
8115 O 136.687 75.6759 46.5187 O.3 0 **** -0.452
8116 O 135.865 77.0619 48.4153 O.2 0 **** -0.419
8117 O 140.392 76.4159 51.1157 O.2 0 **** -0.419
8118 C 142.465 78.898 58.2803 C.3 0 **** -0.159
8119 C 143.732 76.277 57.7663 C.3 0 **** -0.159
8120 H 136.079 75.717 42.9484 H 0 **** 0.053
8121 H 134.96 74.5976 43.7832 H 0 **** 0.053
8122 H 134.282 72.2445 40.5529 H 0 **** 0.053
8123 H 135.336 73.1375 39.4229 H 0 **** 0.053
8124 H 136.899 74.8829 44.6566 H 0 **** 0.1268
8125 H 142.866 75.0605 47.8214 H 0 **** 0.053
8126 H 143.295 73.387 47.4382 H 0 **** 0.053
8127 H 142.853 75.6229 45.3968 H 0 **** 0.053
8128 H 143.276 74.1641 43.7149 H 0 **** 0.053
8129 H 142.805 71.7914 45.5351 H 0 **** 0.053
8130 H 142.188 72.1091 43.9119 H 0 **** 0.053
8131 H 135.267 78.6799 50.1049 H 0 **** 0.053
8132 H 135.314 77.6465 51.544 H 0 **** 0.053
8133 H 135.634 80.0339 52.1354 H 0 **** 0.053
8134 H 136.98 80.2009 51.0054 H 0 **** 0.053
8135 H 136.961 81.6605 53.8051 H 0 **** 0.053
8136 H 135.622 80.5317 54.0806 H 0 **** 0.053
8137 H 136.117 80.2971 56.4198 H 0 **** 0.053
8138 H 136.158 82.032 56.0627 H 0 **** 0.053
8139 H 138.14 81.4444 57.4483 H 0 **** 0.053
8140 H 138.696 81.8452 55.8122 H 0 **** 0.053
8141 H 138.211 79.0331 56.9807 H 0 **** 0.053
8142 H 140.661 80.5128 55.9556 H 0 **** 0.053
8143 H 140.354 80.1145 57.6642 H 0 **** 0.053
8144 H 140.793 75.7606 54.2172 H 0 **** 0.1268
8145 H 142.624 75.0221 55.6872 H 0 **** 0.1268
8146 H 131.487 77.9618 42.4745 H 0 **** 0.053
8147 H 130.766 77.7836 40.9087 H 0 **** 0.053
8148 H 132.659 79.1318 39.8545 H 0 **** 0.053
8149 H 133.375 79.3489 41.4719 H 0 **** 0.053
8150 H 131.783 80.0544 41.1009 H 0 **** 0.053
8151 H 131.702 76.0218 37.9312 H 0 **** 0.053
8152 H 131.327 77.4396 38.8822 H 0 **** 0.053
8153 H 130.414 75.9318 39.1651 H 0 **** 0.053
8154 H 134.934 77.5127 43.2757 H 0 **** 0.053
8155 H 133.792 76.4997 44.206 H 0 **** 0.053
8156 H 133.251 77.9895 43.4346 H 0 **** 0.053
8157 H 133.19 72.8317 38.7205 H 0 **** 0.053
8158 H 133.467 74.2571 37.6889 H 0 **** 0.053
8159 H 131.835 73.8617 38.3046 H 0 **** 0.053
8160 H 137.112 69.9179 40.0004 H 0 **** 0.053
8161 H 137.238 71.3588 38.9445 H 0 **** 0.053
8162 H 135.677 70.8573 39.6601 H 0 **** 0.053
8163 H 140.256 70.994 41.4385 H 0 **** 0.053
8164 H 139.135 70.4091 40.2345 H 0 **** 0.053
8165 H 139.148 69.6404 41.8543 H 0 **** 0.053
8166 H 140.718 70.9243 44.5966 H 0 **** 0.41
8167 H 145.621 73.5879 44.2823 H 0 **** 0.053
8168 H 144.737 72.1196 43.8179 H 0 **** 0.053
8169 H 145.064 72.4408 45.541 H 0 **** 0.053
8170 H 144.758 76.1384 46.8705 H 0 **** 0.053
8171 H 145.366 75.6935 45.2587 H 0 **** 0.053
8172 H 145.465 74.5248 46.616 H 0 **** 0.053
8173 H 141.314 75.4009 50.1769 H 0 **** 0.41
8174 H 136.087 76.231 47.0379 H 0 **** 0.41
8175 H 142.651 79.9308 57.9313 H 0 **** 0.053
8176 H 143.425 78.5581 58.7138 H 0 **** 0.053
8177 H 141.744 78.9493 59.1219 H 0 **** 0.053
8178 H 144.615 76.9374 57.6955 H 0 **** 0.053
8179 H 144.067 75.2722 57.4531 H 0 **** 0.053
8180 H 143.457 76.196 58.8329 H 0 **** 0.053
8181 C 115.101 -3.03318 23.0519 C.2 0 **** 0
8182 C 115.061 -4.05788 22.1193 C.2 0 **** 0
8183 C 115.665 -3.89272 20.8827 C.2 0 **** 0
8184 C 116.311 -2.71397 20.6036 C.2 0 **** 0
8185 C 116.403 -1.70436 21.5541 C.2 0 **** 0
8186 C 115.803 -1.8712 22.7853 C.2 0 **** 0
8187 C 116.961 -2.49504 19.2521 C.3 0 **** -0.106
8188 C 116.741 -3.53097 18.1583 C.2 0 **** 0
8189 C 116.097 -4.70653 18.428 C.2 0 **** 0
8190 C 115.608 -5.00855 19.8429 C.3 0 **** -0.106
8191 C 115.885 -5.62802 17.3977 C.2 0 **** 0
8192 C 116.246 -5.34165 16.0962 C.2 0 **** 0
8193 C 116.99 -4.19495 15.8412 C.2 0 **** 0
8194 C 117.227 -3.27021 16.8654 C.2 0 **** 0
8195 C 117.919 -2.09858 16.5991 C.2 0 **** -0.1268
8196 C 118.297 -1.68749 15.3377 C.2 0 **** 0
8197 C 117.905 -2.59335 14.2893 C.2 0 **** 0
8198 C 117.486 -3.89494 14.5757 C.2 0 **** 0.042
8199 C 118.184 -2.22211 12.8192 C.3 0 **** 0
8200 C 118.919 -0.911567 12.5263 C.3 0 **** 0
8201 C 119.491 -0.12829 13.7247 C.2 0 **** 0
8202 C 119.151 -0.497723 15.0674 C.2 0 **** 0
8203 C 118.506 -0.229523 11.2047 C.3 0 **** -0.106
8204 C 116.984 -0.182748 11.0355 C.3 0 **** -0.053
8205 C 116.362 -1.61201 11.0054 C.3 0 **** -0.053
8206 C 117.259 -2.68921 11.6696 C.3 0 **** -0.106
8207 C 119.79 0.231913 16.0895 C.2 0 **** 0.042
8208 C 120.665 1.2549 15.7896 C.2 0 **** 0.052
8209 C 120.99 1.56419 14.4774 C.2 0 **** 0.052
8210 C 120.452 0.829508 13.454 C.2 0 **** 0.042
8211 C 121.951 2.66817 14.1209 C.2 0 **** 0.367
8212 C 122.542 3.42754 15.2623 C.2 0 **** 0
8213 C 122.245 3.12469 16.5317 C.2 0 **** 0
8214 C 121.302 2.04399 16.9048 C.2 0 **** 0.367
8215 C 122.84 3.90526 17.6809 C.3 0 **** -0.106
8216 C 122.982 5.39018 17.2622 C.3 0 **** -0.106
8217 C 123.743 5.51676 15.9423 C.2 0 **** 0
8218 C 123.515 4.54709 14.9393 C.2 0 **** 0.2405
8219 N 124.13 4.60171 13.7386 N.2 0 **** -0.481
8220 C 124.893 5.65786 13.4757 C.2 0 **** 0.2405
8221 C 125.184 6.64425 14.4466 C.2 0 **** 0
8222 C 124.607 6.55262 15.6883 C.2 0 **** 0
8223 C 124.867 7.59846 16.7651 C.3 0 **** -0.106
8224 C 126.087 8.47667 16.4598 C.3 0 **** -0.106
8225 C 126.064 8.93536 15.0054 C.3 0 **** -0.106
8226 C 126.181 7.71338 14.0748 C.3 0 **** -0.053
8227 C 125.994 8.11536 12.5879 C.3 0 **** -0.106
8228 C 126.017 6.88468 11.7209 C.2 0 **** 0
8229 C 125.449 5.69184 12.1717 C.2 0 **** 0
8230 C 125.441 4.56849 11.3254 C.2 0 **** -0.1268
8231 C 125.969 4.66834 10.0525 C.2 0 **** -0.1268
8232 C 126.496 5.85876 9.58344 C.2 0 **** 0
8233 C 126.501 6.97481 10.4199 C.2 0 **** 0
8234 C 115.937 -0.807931 23.8452 C.3 0 **** -0.106
8235 C 114.871 0.293551 23.6654 C.3 0 **** -0.159
8236 C 114.374 -3.19851 24.3613 C.3 0 **** -0.159
8237 C 117.147 -0.443921 21.1768 C.3 0 **** -0.159
8238 C 114.354 -5.35177 22.4418 C.3 0 **** -0.159
8239 C 115.191 -6.94209 17.7576 C.3 0 **** -0.159
8240 C 115.792 -6.3074 15.0277 C.3 0 **** -0.159
8241 O 117.493 -4.82685 13.5765 O.3 0 **** -0.452
8242 C 116.084 -2.13408 9.59419 C.3 0 **** -0.159
8243 C 116.678 0.651529 9.78599 C.3 0 **** -0.159
8244 O 120.814 1.00148 12.1453 O.3 0 **** -0.452
8245 O 119.565 -0.0726369 17.3923 O.3 0 **** -0.452
8246 O 121.063 1.80399 18.0449 O.2 0 **** -0.419
8247 O 122.184 2.93558 12.9785 O.2 0 **** -0.419
8248 C 127.039 8.29598 9.89575 C.3 0 **** -0.159
8249 C 127.028 5.89911 8.16478 C.3 0 **** -0.159
8250 H 116.589 -1.51923 18.8629 H 0 **** 0.053
8251 H 118.061 -2.37648 19.4074 H 0 **** 0.053
8252 H 116.19 -5.87559 20.2376 H 0 **** 0.053
8253 H 114.551 -5.34855 19.7687 H 0 **** 0.053
8254 H 118.106 -1.48966 17.4547 H 0 **** 0.1268
8255 H 118.894 0.788994 11.1428 H 0 **** 0.053
8256 H 118.96 -0.817598 10.4039 H 0 **** 0.053
8257 H 116.565 0.352735 11.9064 H 0 **** 0.053
8258 H 115.412 -1.56663 11.5545 H 0 **** 0.053
8259 H 117.956 -3.08241 10.9234 H 0 **** 0.053
8260 H 116.616 -3.51852 11.9874 H 0 **** 0.053
8261 H 122.229 3.84495 18.5996 H 0 **** 0.053
8262 H 123.826 3.47409 17.927 H 0 **** 0.053
8263 H 123.465 5.92204 18.0999 H 0 **** 0.053
8264 H 121.967 5.83213 17.1699 H 0 **** 0.053
8265 H 123.977 8.2483 16.8664 H 0 **** 0.053
8266 H 125.03 7.13089 17.7529 H 0 **** 0.053
8267 H 127.016 7.90278 16.64 H 0 **** 0.053
8268 H 126.12 9.34477 17.1442 H 0 **** 0.053
8269 H 126.885 9.64712 14.7959 H 0 **** 0.053
8270 H 125.118 9.46941 14.7973 H 0 **** 0.053
8271 H 127.213 7.30057 14.1925 H 0 **** 0.053
8272 H 125.021 8.6457 12.4748 H 0 **** 0.053
8273 H 126.784 8.85154 12.3232 H 0 **** 0.053
8274 H 125.014 3.6151 11.6602 H 0 **** 0.1268
8275 H 125.955 3.78598 9.39261 H 0 **** 0.1268
8276 H 116.942 -0.343221 23.8465 H 0 **** 0.053
8277 H 115.85 -1.2223 24.8652 H 0 **** 0.053
8278 H 113.853 -0.127969 23.712 H 0 **** 0.053
8279 H 114.981 0.805957 22.6956 H 0 **** 0.053
8280 H 114.944 1.06675 24.4564 H 0 **** 0.053
8281 H 113.48 -3.84645 24.2782 H 0 **** 0.053
8282 H 113.982 -2.24251 24.7577 H 0 **** 0.053
8283 H 115.026 -3.63767 25.1481 H 0 **** 0.053
8284 H 116.667 0.0709837 20.314 H 0 **** 0.053
8285 H 118.198 -0.655711 20.8847 H 0 **** 0.053
8286 H 117.205 0.317338 21.9687 H 0 **** 0.053
8287 H 114.733 -6.2185 21.8666 H 0 **** 0.053
8288 H 113.263 -5.2844 22.2361 H 0 **** 0.053
8289 H 114.473 -5.64589 23.5021 H 0 **** 0.053
8290 H 115.532 -7.78635 17.1327 H 0 **** 0.053
8291 H 114.084 -6.87018 17.6534 H 0 **** 0.053
8292 H 115.394 -7.2779 18.8 H 0 **** 0.053
8293 H 115.422 -5.7821 14.119 H 0 **** 0.053
8294 H 114.915 -6.94941 15.315 H 0 **** 0.053
8295 H 116.597 -7.01411 14.6979 H 0 **** 0.053
8296 H 118.091 -4.54459 12.8795 H 0 **** 0.41
8297 H 115.334 -1.52208 9.0751 H 0 **** 0.053
8298 H 115.692 -3.16843 9.63475 H 0 **** 0.053
8299 H 117.007 -2.15615 8.98279 H 0 **** 0.053
8300 H 117.077 1.6777 9.89457 H 0 **** 0.053
8301 H 115.594 0.734886 9.61505 H 0 **** 0.053
8302 H 117.147 0.216436 8.88087 H 0 **** 0.053
8303 H 121.374 1.79072 12.0875 H 0 **** 0.41
8304 H 120.045 0.54467 17.9647 H 0 **** 0.41
8305 H 126.329 9.12386 10.0806 H 0 **** 0.053
8306 H 127.219 8.29954 8.80383 H 0 **** 0.053
8307 H 128.004 8.56505 10.3729 H 0 **** 0.053
8308 H 126.457 6.60274 7.53124 H 0 **** 0.053
8309 H 126.967 4.91414 7.6693 H 0 **** 0.053
8310 H 128.089 6.20235 8.13162 H 0 **** 0.053
8311 C 107.128 70.4868 78.1669 C.2 0 **** 0
8312 C 106.806 69.1534 77.9678 C.2 0 **** 0
8313 C 107.524 68.163 78.6179 C.2 0 **** 0
8314 C 108.542 68.5206 79.4671 C.2 0 **** 0
8315 C 108.834 69.8567 79.7138 C.2 0 **** 0
8316 C 108.116 70.8414 79.0678 C.2 0 **** 0
8317 C 109.361 67.4599 80.1751 C.3 0 **** -0.106
8318 C 109.147 65.9999 79.7996 C.2 0 **** 0
8319 C 108.136 65.6359 78.9537 C.2 0 **** 0
8320 C 107.189 66.6918 78.3887 C.3 0 **** -0.106
8321 C 107.98 64.2906 78.6048 C.2 0 **** 0
8322 C 108.873 63.3309 79.0395 C.2 0 **** 0
8323 C 109.836 63.6836 79.9785 C.2 0 **** 0
8324 C 109.994 65.0237 80.3519 C.2 0 **** 0
8325 C 110.991 65.3847 81.245 C.2 0 **** -0.1268
8326 C 111.962 64.5251 81.7169 C.2 0 **** 0
8327 C 111.857 63.1873 81.1949 C.2 0 **** 0
8328 C 110.698 62.751 80.5471 C.2 0 **** 0.042
8329 C 112.925 62.1397 81.5668 C.3 0 **** 0
8330 C 114.045 62.551 82.526 C.3 0 **** 0
8331 C 113.938 63.933 83.2011 C.2 0 **** 0
8332 C 112.951 64.8798 82.7721 C.2 0 **** 0
8333 C 115.396 61.851 82.2681 C.3 0 **** -0.106
8334 C 115.768 61.8548 80.7822 C.3 0 **** -0.053
8335 C 114.711 61.1009 79.9197 C.3 0 **** -0.053
8336 C 113.32 60.9985 80.5992 C.3 0 **** -0.106
8337 C 112.885 66.0799 83.5083 C.2 0 **** 0.042
8338 C 113.751 66.3176 84.5546 C.2 0 **** 0.052
8339 C 114.675 65.3646 84.9571 C.2 0 **** 0.052
8340 C 114.72 64.1527 84.3206 C.2 0 **** 0.042
8341 C 115.624 65.5925 86.1045 C.2 0 **** 0.367
8342 C 115.526 66.912 86.7952 C.2 0 **** 0
8343 C 114.627 67.8307 86.4224 C.2 0 **** 0
8344 C 113.684 67.6284 85.2961 C.2 0 **** 0.367
8345 C 114.541 69.1687 87.1202 C.3 0 **** -0.106
8346 C 115.967 69.616 87.5298 C.3 0 **** -0.106
8347 C 116.675 68.5226 88.33 C.2 0 **** 0
8348 C 116.467 67.1752 87.9568 C.2 0 **** 0.2405
8349 N 117.076 66.1538 88.5967 N.2 0 **** -0.481
8350 C 117.964 66.4488 89.5408 C.2 0 **** 0.2405
8351 C 118.193 67.7737 89.9793 C.2 0 **** 0
8352 C 117.527 68.8063 89.368 C.2 0 **** 0
8353 C 117.753 70.2545 89.784 C.3 0 **** -0.106
8354 C 118.448 70.3817 91.1452 C.3 0 **** -0.106
8355 C 119.627 69.4184 91.2348 C.3 0 **** -0.106
8356 C 119.117 67.9669 91.1562 C.3 0 **** -0.053
8357 C 120.293 66.9582 91.0756 C.3 0 **** -0.106
8358 C 119.756 65.5625 90.9007 C.2 0 **** 0
8359 C 118.62 65.3345 90.1215 C.2 0 **** 0
8360 C 118.166 64.0168 89.9344 C.2 0 **** -0.1268
8361 C 118.864 62.9666 90.4989 C.2 0 **** -0.1268
8362 C 120.014 63.1812 91.2371 C.2 0 **** 0
8363 C 120.469 64.4868 91.4209 C.2 0 **** 0
8364 C 108.384 72.2947 79.3629 C.3 0 **** -0.106
8365 C 109.555 72.8281 78.5108 C.3 0 **** -0.159
8366 C 106.388 71.5477 77.3943 C.3 0 **** -0.159
8367 C 109.957 70.1693 80.6758 C.3 0 **** -0.159
8368 C 105.679 68.7741 77.038 C.3 0 **** -0.159
8369 C 106.815 63.9304 77.6835 C.3 0 **** -0.159
8370 C 108.74 61.9487 78.4451 C.3 0 **** -0.159
8371 O 110.482 61.4086 80.4126 O.3 0 **** -0.452
8372 C 115.102 59.6603 79.5842 C.3 0 **** -0.159
8373 C 117.188 61.2894 80.6546 C.3 0 **** -0.159
8374 O 115.524 63.1251 84.7349 O.3 0 **** -0.452
8375 O 111.954 67.0187 83.2061 O.3 0 **** -0.452
8376 O 112.898 68.468 84.9954 O.2 0 **** -0.419
8377 O 116.435 64.7661 86.4056 O.2 0 **** -0.419
8378 C 121.756 64.7257 92.193 C.3 0 **** -0.159
8379 C 120.743 61.9766 91.7983 C.3 0 **** -0.159
8380 H 110.434 67.6951 79.989 H 0 **** 0.053
8381 H 109.198 67.5675 81.2755 H 0 **** 0.053
8382 H 106.168 66.504 78.8018 H 0 **** 0.053
8383 H 107.117 66.5278 77.2908 H 0 **** 0.053
8384 H 110.992 66.416 81.5176 H 0 **** 0.1268
8385 H 116.204 62.323 82.8298 H 0 **** 0.053
8386 H 115.281 60.8264 82.629 H 0 **** 0.053
8387 H 115.796 62.9066 80.4448 H 0 **** 0.053
8388 H 114.597 61.659 78.981 H 0 **** 0.053
8389 H 113.297 60.1065 81.2317 H 0 **** 0.053
8390 H 112.567 60.8631 79.8134 H 0 **** 0.053
8391 H 114.084 69.9512 86.4874 H 0 **** 0.053
8392 H 113.896 69.0622 88.0093 H 0 **** 0.053
8393 H 115.866 70.5673 88.0802 H 0 **** 0.053
8394 H 116.541 69.8591 86.6104 H 0 **** 0.053
8395 H 118.371 70.7625 89.0192 H 0 **** 0.053
8396 H 116.801 70.8125 89.8403 H 0 **** 0.053
8397 H 117.731 70.1471 91.9546 H 0 **** 0.053
8398 H 118.779 71.4233 91.3148 H 0 **** 0.053
8399 H 120.196 69.5663 92.1725 H 0 **** 0.053
8400 H 120.329 69.6099 90.4028 H 0 **** 0.053
8401 H 118.55 67.7596 92.0967 H 0 **** 0.053
8402 H 120.944 67.2286 90.2136 H 0 **** 0.053
8403 H 120.917 67.0754 91.988 H 0 **** 0.053
8404 H 117.267 63.8109 89.3393 H 0 **** 0.1268
8405 H 118.505 61.9363 90.3445 H 0 **** 0.1268
8406 H 108.605 72.4699 80.4341 H 0 **** 0.053
8407 H 107.497 72.9279 79.1829 H 0 **** 0.053
8408 H 109.345 72.7183 77.4342 H 0 **** 0.053
8409 H 110.491 72.2895 78.7312 H 0 **** 0.053
8410 H 109.743 73.9038 78.702 H 0 **** 0.053
8411 H 106.042 71.1964 76.4022 H 0 **** 0.053
8412 H 107.015 72.4307 77.1681 H 0 **** 0.053
8413 H 105.491 71.9141 77.9421 H 0 **** 0.053
8414 H 110.93 69.7667 80.3145 H 0 **** 0.053
8415 H 109.776 69.7276 81.6797 H 0 **** 0.053
8416 H 110.137 71.2405 80.8504 H 0 **** 0.053
8417 H 105.223 67.7924 77.2721 H 0 **** 0.053
8418 H 106.019 68.7247 75.9799 H 0 **** 0.053
8419 H 104.836 69.4903 77.0811 H 0 **** 0.053
8420 H 106.411 62.9222 77.8847 H 0 **** 0.053
8421 H 107.106 63.9692 76.6089 H 0 **** 0.053
8422 H 105.934 64.6022 77.8025 H 0 **** 0.053
8423 H 109.729 61.5047 78.1941 H 0 **** 0.053
8424 H 108.194 61.9081 77.463 H 0 **** 0.053
8425 H 108.214 61.2256 79.1211 H 0 **** 0.053
8426 H 111.002 60.9339 81.066 H 0 **** 0.41
8427 H 116.008 59.619 78.9652 H 0 **** 0.053
8428 H 114.293 59.1621 79.0167 H 0 **** 0.053
8429 H 115.274 59.0653 80.5028 H 0 **** 0.053
8430 H 117.907 61.9072 81.2251 H 0 **** 0.053
8431 H 117.522 61.2772 79.6063 H 0 **** 0.053
8432 H 117.254 60.2598 81.0594 H 0 **** 0.053
8433 H 116.112 63.4612 85.4283 H 0 **** 0.41
8434 H 112.075 67.7987 83.7685 H 0 **** 0.41
8435 H 122.446 65.3863 91.6358 H 0 **** 0.053
8436 H 122.33 63.8014 92.3947 H 0 **** 0.053
8437 H 121.562 65.1946 93.1799 H 0 **** 0.053
8438 H 121.759 61.8755 91.3741 H 0 **** 0.053
8439 H 120.217 61.0315 91.5764 H 0 **** 0.053
8440 H 120.842 62.0305 92.8966 H 0 **** 0.053
8441 C 117.385 70.4681 33.2188 C.2 0 **** 0
8442 C 118.566 70.1857 33.8869 C.2 0 **** 0
8443 C 118.842 68.8871 34.2853 C.2 0 **** 0
8444 C 117.941 67.8907 33.999 C.2 0 **** 0
8445 C 116.783 68.1573 33.2802 C.2 0 **** 0
8446 C 116.512 69.4494 32.8803 C.2 0 **** 0
8447 C 118.203 66.4659 34.4451 C.3 0 **** -0.106
8448 C 119.391 66.192 35.356 C.2 0 **** 0
8449 C 120.29 67.1785 35.6463 C.2 0 **** 0
8450 C 120.131 68.5706 35.0397 C.3 0 **** -0.106
8451 C 121.356 66.9043 36.5087 C.2 0 **** 0
8452 C 121.48 65.6791 37.1313 C.2 0 **** 0
8453 C 120.626 64.648 36.7577 C.2 0 **** 0
8454 C 119.563 64.9001 35.8826 C.2 0 **** 0
8455 C 118.676 63.8859 35.5549 C.2 0 **** -0.1268
8456 C 118.674 62.636 36.1385 C.2 0 **** 0
8457 C 119.69 62.461 37.1431 C.2 0 **** 0
8458 C 120.757 63.3562 37.2581 C.2 0 **** 0.042
8459 C 119.753 61.1438 37.9413 C.3 0 **** 0
8460 C 118.75 60.0387 37.6005 C.3 0 **** 0
8461 C 117.855 60.2409 36.3617 C.2 0 **** 0
8462 C 117.808 61.5091 35.6952 C.2 0 **** 0
8463 C 118.327 59.1677 38.8023 C.3 0 **** -0.106
8464 C 117.979 60.0154 40.0299 C.3 0 **** -0.053
8465 C 119.196 60.8644 40.509 C.3 0 **** -0.053
8466 C 120.258 61.0989 39.4033 C.3 0 **** -0.106
8467 C 117.02 61.564 34.5274 C.2 0 **** 0.042
8468 C 116.323 60.4579 34.09 C.2 0 **** 0.052
8469 C 116.417 59.2404 34.7473 C.2 0 **** 0.052
8470 C 117.232 59.1209 35.8416 C.2 0 **** 0.042
8471 C 115.676 58.0132 34.2848 C.2 0 **** 0.367
8472 C 114.821 58.1717 33.0714 C.2 0 **** 0
8473 C 114.738 59.3394 32.4229 C.2 0 **** 0
8474 C 115.457 60.5599 32.8606 C.2 0 **** 0.367
8475 C 113.861 59.4944 31.2014 C.3 0 **** -0.106
8476 C 112.59 58.6262 31.379 C.3 0 **** -0.106
8477 C 112.957 57.1824 31.7229 C.2 0 **** 0
8478 C 114.06 56.9544 32.5772 C.2 0 **** 0.2405
8479 N 114.432 55.711 32.9488 N.2 0 **** -0.481
8480 C 113.671 54.6908 32.5648 C.2 0 **** 0.2405
8481 C 112.574 54.8507 31.6865 C.2 0 **** 0
8482 C 112.235 56.1105 31.2615 C.2 0 **** 0
8483 C 111.049 56.3438 30.3338 C.3 0 **** -0.106
8484 C 110.568 55.0592 29.6481 C.3 0 **** -0.106
8485 C 110.475 53.9184 30.656 C.3 0 **** -0.106
8486 C 111.878 53.6009 31.2085 C.3 0 **** -0.053
8487 C 111.81 52.5614 32.3584 C.3 0 **** -0.106
8488 C 113.184 52.3516 32.9373 C.2 0 **** 0
8489 C 114.075 53.4209 33.0492 C.2 0 **** 0
8490 C 115.335 53.2097 33.6365 C.2 0 **** -0.1268
8491 C 115.663 51.9575 34.1194 C.2 0 **** -0.1268
8492 C 114.769 50.9031 34.0505 C.2 0 **** 0
8493 C 113.518 51.1111 33.4716 C.2 0 **** 0
8494 C 115.285 69.747 32.0552 C.3 0 **** -0.106
8495 C 114.047 69.9478 32.9534 C.3 0 **** -0.159
8496 C 117.054 71.8936 32.8629 C.3 0 **** -0.159
8497 C 115.85 67.004 32.9901 C.3 0 **** -0.159
8498 C 119.553 71.2839 34.1963 C.3 0 **** -0.159
8499 C 122.351 68.0285 36.7732 C.3 0 **** -0.159
8500 C 122.545 65.5523 38.1951 C.3 0 **** -0.159
8501 O 121.877 62.9674 37.9379 O.3 0 **** -0.452
8502 C 119.962 60.2403 41.6773 C.3 0 **** -0.159
8503 C 117.419 59.0751 41.1038 C.3 0 **** -0.159
8504 O 117.461 57.9274 36.4712 O.3 0 **** -0.452
8505 O 116.948 62.7094 33.8039 O.3 0 **** -0.452
8506 O 115.358 61.5798 32.2581 O.2 0 **** -0.419
8507 O 115.746 56.9859 34.8944 O.2 0 **** -0.419
8508 C 112.516 49.9692 33.4329 C.3 0 **** -0.159
8509 C 115.189 49.5668 34.63 C.3 0 **** -0.159
8510 H 117.289 66.1173 34.9801 H 0 **** 0.053
8511 H 118.302 65.8262 33.5344 H 0 **** 0.053
8512 H 120.987 68.7526 34.3464 H 0 **** 0.053
8513 H 120.231 69.3114 35.8634 H 0 **** 0.053
8514 H 117.94 64.1572 34.8327 H 0 **** 0.1268
8515 H 117.468 58.5408 38.5583 H 0 **** 0.053
8516 H 119.176 58.5151 39.0186 H 0 **** 0.053
8517 H 117.172 60.7113 39.7401 H 0 **** 0.053
8518 H 118.808 61.8406 40.8281 H 0 **** 0.053
8519 H 120.965 60.2639 39.4048 H 0 **** 0.053
8520 H 120.821 62.005 39.659 H 0 **** 0.053
8521 H 113.561 60.5429 31.0221 H 0 **** 0.053
8522 H 114.433 59.1714 30.314 H 0 **** 0.053
8523 H 111.998 58.7197 30.4527 H 0 **** 0.053
8524 H 111.965 59.0709 32.1827 H 0 **** 0.053
8525 H 110.21 56.7741 30.9138 H 0 **** 0.053
8526 H 111.292 57.0753 29.5421 H 0 **** 0.053
8527 H 111.277 54.7744 28.8478 H 0 **** 0.053
8528 H 109.592 55.2264 29.1545 H 0 **** 0.053
8529 H 110.039 53.0113 30.1966 H 0 **** 0.053
8530 H 109.807 54.2084 31.4869 H 0 **** 0.053
8531 H 112.473 53.1533 30.3752 H 0 **** 0.053
8532 H 111.117 52.9356 33.1453 H 0 **** 0.053
8533 H 111.357 51.6281 31.9597 H 0 **** 0.053
8534 H 116.06 54.0289 33.7229 H 0 **** 0.1268
8535 H 116.65 51.7999 34.5822 H 0 **** 0.1268
8536 H 115.073 68.948 31.3183 H 0 **** 0.053
8537 H 115.415 70.6437 31.4233 H 0 **** 0.053
8538 H 114.203 70.7735 33.6671 H 0 **** 0.053
8539 H 113.818 69.0384 33.5332 H 0 **** 0.053
8540 H 113.145 70.1932 32.3575 H 0 **** 0.053
8541 H 117.493 72.6283 33.5641 H 0 **** 0.053
8542 H 115.969 72.1017 32.8901 H 0 **** 0.053
8543 H 117.391 72.1558 31.839 H 0 **** 0.053
8544 H 115.46 66.5478 33.9279 H 0 **** 0.053
8545 H 116.357 66.1949 32.4218 H 0 **** 0.053
8546 H 114.956 67.264 32.4048 H 0 **** 0.053
8547 H 120.594 70.9253 34.3101 H 0 **** 0.053
8548 H 119.292 71.8208 35.1335 H 0 **** 0.053
8549 H 119.611 72.0365 33.3936 H 0 **** 0.053
8550 H 123.373 67.6495 36.953 H 0 **** 0.053
8551 H 122.058 68.6473 37.652 H 0 **** 0.053
8552 H 122.465 68.7258 35.9121 H 0 **** 0.053
8553 H 122.182 64.9894 39.0838 H 0 **** 0.053
8554 H 122.885 66.5262 38.642 H 0 **** 0.053
8555 H 123.473 65.0379 37.8333 H 0 **** 0.053
8556 H 121.911 62.0077 37.974 H 0 **** 0.41
8557 H 119.338 60.1633 42.5777 H 0 **** 0.053
8558 H 120.841 60.8597 41.9385 H 0 **** 0.053
8559 H 120.337 59.2303 41.4193 H 0 **** 0.053
8560 H 116.515 58.5564 40.7351 H 0 **** 0.053
8561 H 117.136 59.6275 42.0124 H 0 **** 0.053
8562 H 118.152 58.2905 41.38 H 0 **** 0.053
8563 H 116.86 57.2663 36.0946 H 0 **** 0.41
8564 H 116.334 62.5956 33.0625 H 0 **** 0.41
8565 H 111.53 50.282 33.8232 H 0 **** 0.053
8566 H 112.813 49.0973 34.0464 H 0 **** 0.053
8567 H 112.366 49.5888 32.4012 H 0 **** 0.053
8568 H 114.546 49.2654 35.4772 H 0 **** 0.053
8569 H 116.223 49.5868 35.0154 H 0 **** 0.053
8570 H 115.15 48.7611 33.8762 H 0 **** 0.053
8571 C 118.253 57.9955 67.5902 C.2 0 **** 0
8572 C 117.872 59.3122 67.3851 C.2 0 **** 0
8573 C 118.224 59.9592 66.2118 C.2 0 **** 0
8574 C 118.932 59.2762 65.2542 C.2 0 **** 0
8575 C 119.27 57.94 65.4304 C.2 0 **** 0
8576 C 118.92 57.297 66.5993 C.2 0 **** 0
8577 C 119.349 59.9631 63.9692 C.3 0 **** -0.106
8578 C 119.128 61.4628 63.8417 C.2 0 **** 0
8579 C 118.439 62.1494 64.8004 C.2 0 **** 0
8580 C 117.832 61.4157 65.992 C.3 0 **** -0.106
8581 C 118.307 63.5361 64.6904 C.2 0 **** 0
8582 C 118.877 64.2314 63.6399 C.2 0 **** 0
8583 C 119.474 63.5175 62.6056 C.2 0 **** 0
8584 C 119.63 62.1312 62.7118 C.2 0 **** 0
8585 C 120.296 61.4293 61.7186 C.2 0 **** -0.1268
8586 C 120.953 62.0177 60.658 C.2 0 **** 0
8587 C 120.885 63.4549 60.6544 C.2 0 **** 0
8588 C 119.977 64.1371 61.4674 C.2 0 **** 0.042
8589 C 121.647 64.2535 59.5792 C.3 0 **** 0
8590 C 122.426 63.4773 58.5139 C.3 0 **** 0
8591 C 122.25 61.9461 58.4728 C.2 0 **** 0
8592 C 121.57 61.2617 59.533 C.2 0 **** 0
8593 C 123.703 64.1843 58.0109 C.3 0 **** -0.106
8594 C 124.546 64.7367 59.1648 C.3 0 **** -0.053
8595 C 123.759 65.7911 60.0003 C.3 0 **** -0.053
8596 C 122.218 65.6652 59.8598 C.3 0 **** -0.106
8597 C 121.397 59.8737 59.3615 C.2 0 **** 0.042
8598 C 121.886 59.2323 58.2439 C.2 0 **** 0.052
8599 C 122.514 59.9341 57.2258 C.2 0 **** 0.052
8600 C 122.637 61.2951 57.3154 C.2 0 **** 0.042
8601 C 123.048 59.26 55.9899 C.2 0 **** 0.367
8602 C 122.873 57.7799 55.9126 C.2 0 **** 0
8603 C 122.255 57.0979 56.8838 C.2 0 **** 0
8604 C 121.722 57.7406 58.1084 C.2 0 **** 0.367
8605 C 122.091 55.5972 56.803 C.3 0 **** -0.106
8606 C 123.34 54.9883 56.1178 C.3 0 **** -0.106
8607 C 123.619 55.6738 54.7801 C.2 0 **** 0
8608 C 123.401 57.0669 54.68 C.2 0 **** 0.2405
8609 N 123.648 57.7494 53.5418 N.2 0 **** -0.481
8610 C 124.2 57.0921 52.5269 C.2 0 **** 0.2405
8611 C 124.414 55.6944 52.5546 C.2 0 **** 0
8612 C 124.105 54.992 53.6923 C.2 0 **** 0
8613 C 124.337 53.4888 53.7855 C.3 0 **** -0.106
8614 C 124.55 52.8328 52.4157 C.3 0 **** -0.106
8615 C 125.521 53.6561 51.5751 C.3 0 **** -0.106
8616 C 124.911 55.0415 51.2886 C.3 0 **** -0.053
8617 C 125.93 55.9718 50.5791 C.3 0 **** -0.106
8618 C 125.333 57.343 50.4053 C.2 0 **** 0
8619 C 124.502 57.8821 51.3891 C.2 0 **** 0
8620 C 123.994 59.1836 51.2258 C.2 0 **** -0.1268
8621 C 124.347 59.9195 50.1111 C.2 0 **** -0.1268
8622 C 125.204 59.4079 49.1525 C.2 0 **** 0
8623 C 125.711 58.1188 49.3143 C.2 0 **** 0
8624 C 119.233 55.8347 66.7844 C.3 0 **** -0.106
8625 C 120.671 55.6347 67.3077 C.3 0 **** -0.159
8626 C 117.933 57.3311 68.9039 C.3 0 **** -0.159
8627 C 120.039 57.2547 64.3247 C.3 0 **** -0.159
8628 C 117.084 60.0492 68.4405 C.3 0 **** -0.159
8629 C 117.444 64.2494 65.7362 C.3 0 **** -0.159
8630 C 118.767 65.7374 63.6731 C.3 0 **** -0.159
8631 O 119.677 65.4354 61.1745 O.3 0 **** -0.452
8632 C 124.081 67.2395 59.6262 C.3 0 **** -0.159
8633 C 125.858 65.2688 58.5741 C.3 0 **** -0.159
8634 O 123.146 62.0642 56.3042 O.3 0 **** -0.452
8635 O 120.731 59.1458 60.2932 O.3 0 **** -0.452
8636 O 121.175 57.1007 58.9478 O.2 0 **** -0.419
8637 O 123.62 59.8852 55.1451 O.2 0 **** -0.419
8638 C 126.687 57.5681 48.2878 C.3 0 **** -0.159
8639 C 125.57 60.2867 47.9731 C.3 0 **** -0.159
8640 H 120.443 59.7855 63.8445 H 0 **** 0.053
8641 H 118.844 59.4506 63.1138 H 0 **** 0.053
8642 H 116.721 61.4654 65.914 H 0 **** 0.053
8643 H 118.105 61.983 66.9091 H 0 **** 0.053
8644 H 120.317 60.3724 61.8598 H 0 **** 0.1268
8645 H 124.326 63.5113 57.4184 H 0 **** 0.053
8646 H 123.366 64.9967 57.3634 H 0 **** 0.053
8647 H 124.798 63.8928 59.832 H 0 **** 0.053
8648 H 124.024 65.6365 61.0546 H 0 **** 0.053
8649 H 121.891 66.2499 58.9953 H 0 **** 0.053
8650 H 121.76 66.1113 60.7501 H 0 **** 0.053
8651 H 121.958 55.1283 57.795 H 0 **** 0.053
8652 H 121.18 55.3733 56.2213 H 0 **** 0.053
8653 H 123.167 53.9021 56.0265 H 0 **** 0.053
8654 H 124.21 55.098 56.8004 H 0 **** 0.053
8655 H 125.225 53.2937 54.4164 H 0 **** 0.053
8656 H 123.487 52.9777 54.2724 H 0 **** 0.053
8657 H 123.585 52.7606 51.8807 H 0 **** 0.053
8658 H 124.918 51.7965 52.536 H 0 **** 0.053
8659 H 125.759 53.1462 50.6222 H 0 **** 0.053
8660 H 126.475 53.7769 52.1191 H 0 **** 0.053
8661 H 124.045 54.8899 50.5981 H 0 **** 0.053
8662 H 126.856 56.0326 51.1954 H 0 **** 0.053
8663 H 126.225 55.4982 49.6175 H 0 **** 0.053
8664 H 123.327 59.6256 51.9766 H 0 **** 0.1268
8665 H 123.95 60.9403 49.9915 H 0 **** 0.1268
8666 H 119.104 55.2583 65.8476 H 0 **** 0.053
8667 H 118.53 55.3433 67.4809 H 0 **** 0.053
8668 H 120.819 56.1531 68.2695 H 0 **** 0.053
8669 H 121.416 56.0239 66.5954 H 0 **** 0.053
8670 H 120.901 54.5629 67.4722 H 0 **** 0.053
8671 H 117.901 58.044 69.751 H 0 **** 0.053
8672 H 118.693 56.5848 69.2044 H 0 **** 0.053
8673 H 116.951 56.8085 68.8783 H 0 **** 0.053
8674 H 121.027 57.7384 64.1529 H 0 **** 0.053
8675 H 119.491 57.2849 63.3587 H 0 **** 0.053
8676 H 120.268 56.1938 64.5051 H 0 **** 0.053
8677 H 116.473 60.8799 68.0378 H 0 **** 0.053
8678 H 117.75 60.4884 69.217 H 0 **** 0.053
8679 H 116.359 59.3945 68.9596 H 0 **** 0.053
8680 H 116.885 65.107 65.3171 H 0 **** 0.053
8681 H 118.049 64.6254 66.5889 H 0 **** 0.053
8682 H 116.642 63.6026 66.1651 H 0 **** 0.053
8683 H 119.718 66.2312 63.3752 H 0 **** 0.053
8684 H 118.564 66.171 64.6888 H 0 **** 0.053
8685 H 117.963 66.1395 63.0025 H 0 **** 0.053
8686 H 119.885 65.606 60.2525 H 0 **** 0.41
8687 H 125.131 67.4885 59.8301 H 0 **** 0.053
8688 H 123.457 67.9389 60.2147 H 0 **** 0.053
8689 H 123.873 67.4348 58.5558 H 0 **** 0.053
8690 H 126.41 64.4607 58.0582 H 0 **** 0.053
8691 H 126.517 65.6705 59.3581 H 0 **** 0.053
8692 H 125.674 66.0641 57.8245 H 0 **** 0.053
8693 H 123.497 61.4711 55.6231 H 0 **** 0.41
8694 H 120.74 58.2085 60.0494 H 0 **** 0.41
8695 H 127.591 57.151 48.7706 H 0 **** 0.053
8696 H 127.058 58.3293 47.5752 H 0 **** 0.053
8697 H 126.229 56.7638 47.6756 H 0 **** 0.053
8698 H 126.652 60.5138 47.9487 H 0 **** 0.053
8699 H 125.048 61.2592 48.0012 H 0 **** 0.053
8700 H 125.305 59.8153 47.0107 H 0 **** 0.053
8701 C 122.576 40.3633 93.5232 C.2 0 **** 0
8702 C 123.595 40.5041 94.4519 C.2 0 **** 0
8703 C 124.597 39.5494 94.5311 C.2 0 **** 0
8704 C 124.572 38.4785 93.6725 C.2 0 **** 0
8705 C 123.584 38.3603 92.7023 C.2 0 **** 0
8706 C 122.589 39.3128 92.6232 C.2 0 **** 0
8707 C 125.64 37.4063 93.75 C.3 0 **** -0.106
8708 C 126.638 37.4501 94.8994 C.2 0 **** 0
8709 C 126.668 38.5125 95.7591 C.2 0 **** 0
8710 C 125.712 39.6871 95.5641 C.3 0 **** -0.106
8711 C 127.577 38.5133 96.8219 C.2 0 **** 0
8712 C 128.395 37.4273 97.0645 C.2 0 **** 0
8713 C 128.436 36.395 96.1343 C.2 0 **** 0
8714 C 127.545 36.3875 95.0545 C.2 0 **** 0
8715 C 127.546 35.3298 94.1579 C.2 0 **** -0.1268
8716 C 128.288 34.1775 94.3149 C.2 0 **** 0
8717 C 129.082 34.1566 95.5159 C.2 0 **** 0
8718 C 129.314 35.3214 96.2517 C.2 0 **** 0.042
8719 C 129.897 32.8958 95.8674 C.3 0 **** 0
8720 C 129.868 31.7159 94.8925 C.3 0 **** 0
8721 C 129.172 31.9264 93.5334 C.2 0 **** 0
8722 C 128.388 33.1018 93.2901 C.2 0 **** 0
8723 C 129.99 30.3305 95.5622 C.3 0 **** -0.106
8724 C 129.068 30.1998 96.7785 C.3 0 **** -0.053
8725 C 129.41 31.2512 97.8765 C.3 0 **** -0.053
8726 C 130.175 32.4868 97.3337 C.3 0 **** -0.106
8727 C 127.861 33.2344 91.9896 C.2 0 **** 0.042
8728 C 128.076 32.2625 91.0355 C.2 0 **** 0.052
8729 C 128.863 31.1522 91.3015 C.2 0 **** 0.052
8730 C 129.46 31.0218 92.5275 C.2 0 **** 0.042
8731 C 129.125 30.082 90.2744 C.2 0 **** 0.367
8732 C 128.485 30.2719 88.9395 C.2 0 **** 0
8733 C 127.736 31.3482 88.6704 C.2 0 **** 0
8734 C 127.465 32.4131 89.6657 C.2 0 **** 0.367
8735 C 127.082 31.5276 87.3193 C.3 0 **** -0.106
8736 C 126.65 30.1409 86.7801 C.3 0 **** -0.106
8737 C 127.82 29.1575 86.7974 C.2 0 **** 0
8738 C 128.728 29.212 87.8796 C.2 0 **** 0.2405
8739 N 129.773 28.3629 87.98 N.2 0 **** -0.481
8740 C 129.879 27.3936 87.0766 C.2 0 **** 0.2405
8741 C 129.021 27.3043 85.9556 C.2 0 **** 0
8742 C 127.997 28.2076 85.8225 C.2 0 **** 0
8743 C 127.029 28.1444 84.6476 C.3 0 **** -0.106
8744 C 127.547 27.2731 83.4964 C.3 0 **** -0.106
8745 C 128.111 25.9611 84.0319 C.3 0 **** -0.106
8746 C 129.333 26.2487 84.9241 C.3 0 **** -0.053
8747 C 129.837 24.9591 85.6239 C.3 0 **** -0.106
8748 C 130.967 25.2965 86.5604 C.2 0 **** 0
8749 C 130.954 26.4917 87.2818 C.2 0 **** 0
8750 C 131.996 26.7625 88.1863 C.2 0 **** -0.1268
8751 C 133.001 25.8324 88.3694 C.2 0 **** -0.1268
8752 C 132.999 24.6272 87.6894 C.2 0 **** 0
8753 C 131.964 24.3551 86.7948 C.2 0 **** 0
8754 C 121.54 39.2277 91.5446 C.3 0 **** -0.106
8755 C 120.382 38.2999 91.968 C.3 0 **** -0.159
8756 C 121.454 41.3685 93.5016 C.3 0 **** -0.159
8757 C 123.636 37.1619 91.7828 C.3 0 **** -0.159
8758 C 123.615 41.6904 95.3845 C.3 0 **** -0.159
8759 C 127.595 39.7397 97.7347 C.3 0 **** -0.159
8760 C 129.189 37.4381 98.3489 C.3 0 **** -0.159
8761 O 130.354 35.3481 97.1371 O.3 0 **** -0.452
8762 C 130.286 30.7004 99.001 C.3 0 **** -0.159
8763 C 129.14 28.7482 97.2682 C.3 0 **** -0.159
8764 O 130.339 30.0153 92.8226 O.3 0 **** -0.452
8765 O 127.144 34.3347 91.65 O.3 0 **** -0.452
8766 O 126.796 33.3559 89.3881 O.2 0 **** -0.419
8767 O 129.779 29.1164 90.5431 O.2 0 **** -0.419
8768 C 131.932 23.015 86.0791 C.3 0 **** -0.159
8769 C 134.118 23.6435 87.967 C.3 0 **** -0.159
8770 H 125.116 36.4243 93.8049 H 0 **** 0.053
8771 H 126.21 37.4094 92.789 H 0 **** 0.053
8772 H 126.314 40.5897 95.3006 H 0 **** 0.053
8773 H 125.238 39.9029 96.5471 H 0 **** 0.053
8774 H 126.877 35.4449 93.3347 H 0 **** 0.1268
8775 H 129.757 29.5264 94.8619 H 0 **** 0.053
8776 H 131.034 30.229 95.8645 H 0 **** 0.053
8777 H 128.033 30.3873 96.4389 H 0 **** 0.053
8778 H 128.461 31.5934 98.3098 H 0 **** 0.053
8779 H 131.247 32.2741 97.3416 H 0 **** 0.053
8780 H 130 33.3232 98.0213 H 0 **** 0.053
8781 H 126.2 32.1919 87.3576 H 0 **** 0.053
8782 H 127.808 32.0025 86.6364 H 0 **** 0.053
8783 H 126.224 30.2988 85.7743 H 0 **** 0.053
8784 H 125.813 29.7616 87.4052 H 0 **** 0.053
8785 H 126.059 27.7379 84.994 H 0 **** 0.053
8786 H 126.821 29.1499 84.2394 H 0 **** 0.053
8787 H 128.345 27.8102 82.9495 H 0 **** 0.053
8788 H 126.741 27.0831 82.7629 H 0 **** 0.053
8789 H 128.399 25.282 83.2069 H 0 **** 0.053
8790 H 127.337 25.436 84.621 H 0 **** 0.053
8791 H 130.151 26.6229 84.261 H 0 **** 0.053
8792 H 128.995 24.5001 86.1898 H 0 **** 0.053
8793 H 130.124 24.2248 84.8398 H 0 **** 0.053
8794 H 132.016 27.6999 88.7563 H 0 **** 0.1268
8795 H 133.81 26.0487 89.0849 H 0 **** 0.1268
8796 H 121.957 38.8714 90.5827 H 0 **** 0.053
8797 H 121.125 40.2183 91.2873 H 0 **** 0.053
8798 H 119.907 38.6564 92.8973 H 0 **** 0.053
8799 H 120.734 37.2698 92.1416 H 0 **** 0.053
8800 H 119.591 38.2515 91.192 H 0 **** 0.053
8801 H 121.248 41.8062 94.498 H 0 **** 0.053
8802 H 120.487 40.9265 93.1931 H 0 **** 0.053
8803 H 121.664 42.2135 92.8095 H 0 **** 0.053
8804 H 123.542 36.2081 92.3493 H 0 **** 0.053
8805 H 124.593 37.1128 91.2208 H 0 **** 0.053
8806 H 122.841 37.1233 91.0228 H 0 **** 0.053
8807 H 124.628 41.948 95.7515 H 0 **** 0.053
8808 H 122.984 41.5158 96.2838 H 0 **** 0.053
8809 H 123.25 42.6156 94.8991 H 0 **** 0.053
8810 H 128.599 39.9473 98.1459 H 0 **** 0.053
8811 H 126.894 39.6291 98.5937 H 0 **** 0.053
8812 H 127.316 40.6832 97.2123 H 0 **** 0.053
8813 H 129.188 36.4446 98.8497 H 0 **** 0.053
8814 H 128.785 38.1177 99.1476 H 0 **** 0.053
8815 H 130.261 37.7352 98.2039 H 0 **** 0.053
8816 H 130.989 34.6658 96.9048 H 0 **** 0.41
8817 H 129.773 29.9053 99.5548 H 0 **** 0.053
8818 H 130.534 31.5015 99.7214 H 0 **** 0.053
8819 H 131.242 30.299 98.6114 H 0 **** 0.053
8820 H 128.815 28.0516 96.4728 H 0 **** 0.053
8821 H 128.486 28.585 98.1386 H 0 **** 0.053
8822 H 130.175 28.4627 97.5449 H 0 **** 0.053
8823 H 130.336 29.3848 92.0871 H 0 **** 0.41
8824 H 126.812 34.2483 90.7439 H 0 **** 0.41
8825 H 130.942 22.5301 86.1715 H 0 **** 0.053
8826 H 132.658 22.281 86.4782 H 0 **** 0.053
8827 H 132.156 23.1213 84.9976 H 0 **** 0.053
8828 H 133.739 22.7035 88.4087 H 0 **** 0.053
8829 H 134.858 24.0464 88.6799 H 0 **** 0.053
8830 H 134.673 23.383 87.0493 H 0 **** 0.053
8831 C 137.242 90.4222 4.75551 C.2 0 **** 0
8832 C 136.995 89.0719 4.56381 C.2 0 **** 0
8833 C 138.051 88.1935 4.38184 C.2 0 **** 0
8834 C 139.336 88.6749 4.40907 C.2 0 **** 0
8835 C 139.593 90.0181 4.65603 C.2 0 **** 0
8836 C 138.541 90.8909 4.83949 C.2 0 **** 0
8837 C 140.511 87.7426 4.19118 C.3 0 **** -0.106
8838 C 140.235 86.3039 3.7762 C.2 0 **** 0
8839 C 138.958 85.8173 3.74574 C.2 0 **** 0
8840 C 137.786 86.7082 4.15153 C.3 0 **** -0.106
8841 C 138.732 84.4996 3.33533 C.2 0 **** 0
8842 C 139.767 83.702 2.88881 C.2 0 **** 0
8843 C 141.073 84.1607 3.01638 C.2 0 **** 0
8844 C 141.317 85.4721 3.44199 C.2 0 **** 0
8845 C 142.617 85.9494 3.51497 C.2 0 **** -0.1268
8846 C 143.725 85.2623 3.06334 C.2 0 **** 0
8847 C 143.419 83.9756 2.49403 C.2 0 **** 0
8848 C 142.174 83.3728 2.6933 C.2 0 **** 0.042
8849 C 144.548 83.132 1.86935 C.3 0 **** 0
8850 C 145.977 83.6781 1.91951 C.3 0 **** 0
8851 C 146.228 84.9535 2.74865 C.2 0 **** 0
8852 C 145.129 85.719 3.25928 C.2 0 **** 0
8853 C 146.856 83.2804 0.714499 C.3 0 **** -0.106
8854 C 146.124 83.4764 -0.617173 C.3 0 **** -0.053
8855 C 144.837 82.6006 -0.703186 C.3 0 **** -0.053
8856 C 144.288 82.1724 0.683218 C.3 0 **** -0.106
8857 C 145.468 86.8204 4.07064 C.2 0 **** 0.042
8858 C 146.786 87.1389 4.31878 C.2 0 **** 0.052
8859 C 147.822 86.357 3.82898 C.2 0 **** 0.052
8860 C 147.536 85.2325 3.10075 C.2 0 **** 0.042
8861 C 149.27 86.6745 4.09414 C.2 0 **** 0.367
8862 C 149.544 87.8896 4.91702 C.2 0 **** 0
8863 C 148.55 88.6403 5.4062 C.2 0 **** 0
8864 C 147.118 88.3476 5.1568 C.2 0 **** 0.367
8865 C 148.835 89.8755 6.22933 C.3 0 **** -0.106
8866 C 150.114 90.5601 5.68472 C.3 0 **** -0.106
8867 C 151.273 89.5668 5.60003 C.2 0 **** 0
8868 C 150.993 88.2391 5.20419 C.2 0 **** 0.2405
8869 N 151.964 87.3098 5.07996 N.2 0 **** -0.481
8870 C 153.224 87.6967 5.2498 C.2 0 **** 0.2405
8871 C 153.567 89.0014 5.67522 C.2 0 **** 0
8872 C 152.572 89.9285 5.85916 C.2 0 **** 0
8873 C 152.885 91.3549 6.29404 C.3 0 **** -0.106
8874 C 154.301 91.5069 6.86283 C.3 0 **** -0.106
8875 C 155.312 90.7902 5.97465 C.3 0 **** -0.106
8876 C 155.019 89.2777 5.97212 C.3 0 **** -0.053
8877 C 155.918 88.5297 4.95231 C.3 0 **** -0.106
8878 C 155.536 87.0742 4.9072 C.2 0 **** 0
8879 C 154.199 86.6905 5.03351 C.2 0 **** 0
8880 C 153.862 85.3284 4.94101 C.2 0 **** -0.1268
8881 C 154.85 84.3942 4.69845 C.2 0 **** -0.1268
8882 C 156.171 84.771 4.52976 C.2 0 **** 0
8883 C 156.507 86.1216 4.61763 C.2 0 **** 0
8884 C 138.803 92.3402 5.15958 C.3 0 **** -0.106
8885 C 139.035 93.1598 3.87269 C.3 0 **** -0.159
8886 C 136.081 91.3752 4.87539 C.3 0 **** -0.159
8887 C 141.036 90.4672 4.68877 C.3 0 **** -0.159
8888 C 135.577 88.5541 4.54499 C.3 0 **** -0.159
8889 C 137.29 83.9925 3.352 C.3 0 **** -0.159
8890 C 139.396 82.3723 2.27607 C.3 0 **** -0.159
8891 O 142.048 82.0285 2.48277 O.3 0 **** -0.452
8892 C 145.03 81.2967 -1.4804 C.3 0 **** -0.159
8893 C 147.129 83.2132 -1.74545 C.3 0 **** -0.159
8894 O 148.499 84.3535 2.6828 O.3 0 **** -0.452
8895 O 144.496 87.5802 4.63466 O.3 0 **** -0.452
8896 O 146.263 89.0387 5.60846 O.2 0 **** -0.419
8897 O 150.143 86.0033 3.62596 O.2 0 **** -0.419
8898 C 157.949 86.5462 4.38948 C.3 0 **** -0.159
8899 C 157.194 83.6922 4.23509 C.3 0 **** -0.159
8900 H 141.148 88.1988 3.39901 H 0 **** 0.053
8901 H 141.125 87.7279 5.125 H 0 **** 0.053
8902 H 137.335 86.2914 5.08462 H 0 **** 0.053
8903 H 137.007 86.6221 3.36153 H 0 **** 0.053
8904 H 142.706 86.9355 3.91202 H 0 **** 0.1268
8905 H 147.783 83.8557 0.689183 H 0 **** 0.053
8906 H 147.11 82.2278 0.857599 H 0 **** 0.053
8907 H 145.82 84.5365 -0.680978 H 0 **** 0.053
8908 H 144.069 83.1986 -1.21031 H 0 **** 0.053
8909 H 144.78 81.2455 0.990627 H 0 **** 0.053
8910 H 143.219 81.9552 0.572936 H 0 **** 0.053
8911 H 148.002 90.6009 6.21334 H 0 **** 0.053
8912 H 148.973 89.5733 7.282 H 0 **** 0.053
8913 H 150.325 91.426 6.33576 H 0 **** 0.053
8914 H 149.891 90.984 4.68239 H 0 **** 0.053
8915 H 152.774 92.034 5.4268 H 0 **** 0.053
8916 H 152.175 91.7084 7.06338 H 0 **** 0.053
8917 H 154.344 91.0718 7.87931 H 0 **** 0.053
8918 H 154.562 92.5762 6.97042 H 0 **** 0.053
8919 H 156.348 90.9714 6.31888 H 0 **** 0.053
8920 H 155.246 91.1818 4.94325 H 0 **** 0.053
8921 H 155.259 88.8883 6.99175 H 0 **** 0.053
8922 H 155.788 88.9909 3.94689 H 0 **** 0.053
8923 H 156.981 88.6939 5.23608 H 0 **** 0.053
8924 H 152.821 84.9981 5.05204 H 0 **** 0.1268
8925 H 154.578 83.329 4.62292 H 0 **** 0.1268
8926 H 139.672 92.4687 5.83404 H 0 **** 0.053
8927 H 137.974 92.7987 5.72745 H 0 **** 0.053
8928 H 138.165 93.0961 3.1994 H 0 **** 0.053
8929 H 139.918 92.7985 3.3194 H 0 **** 0.053
8930 H 139.203 94.2326 4.09564 H 0 **** 0.053
8931 H 135.191 91.0434 4.30601 H 0 **** 0.053
8932 H 136.307 92.3794 4.46883 H 0 **** 0.053
8933 H 135.762 91.5131 5.93196 H 0 **** 0.053
8934 H 141.54 90.2942 3.71121 H 0 **** 0.053
8935 H 141.623 89.9197 5.45769 H 0 **** 0.053
8936 H 141.187 91.5354 4.90402 H 0 **** 0.053
8937 H 135.492 87.4867 4.82635 H 0 **** 0.053
8938 H 135.116 88.6576 3.53751 H 0 **** 0.053
8939 H 134.924 89.085 5.26376 H 0 **** 0.053
8940 H 137.223 82.912 3.56976 H 0 **** 0.053
8941 H 136.774 84.175 2.38152 H 0 **** 0.053
8942 H 136.664 84.4668 4.14241 H 0 **** 0.053
8943 H 139.99 82.1534 1.36159 H 0 **** 0.053
8944 H 138.337 82.3045 1.90418 H 0 **** 0.053
8945 H 139.534 81.5079 2.97652 H 0 **** 0.053
8946 H 142.916 81.6168 2.51978 H 0 **** 0.41
8947 H 145.278 81.484 -2.53355 H 0 **** 0.053
8948 H 144.1 80.6962 -1.46404 H 0 **** 0.053
8949 H 145.83 80.6753 -1.03283 H 0 **** 0.053
8950 H 147.984 83.9126 -1.6783 H 0 **** 0.053
8951 H 146.666 83.3508 -2.73432 H 0 **** 0.053
8952 H 147.545 82.1877 -1.68897 H 0 **** 0.053
8953 H 149.366 84.7416 2.87282 H 0 **** 0.41
8954 H 144.892 88.318 5.12268 H 0 **** 0.41
8955 H 158.017 87.372 3.65683 H 0 **** 0.053
8956 H 158.59 85.7398 3.98556 H 0 **** 0.053
8957 H 158.43 86.8873 5.3293 H 0 **** 0.053
8958 H 157.66 83.8269 3.24184 H 0 **** 0.053
8959 H 156.746 82.6829 4.23493 H 0 **** 0.053
8960 H 158.003 83.6764 4.98603 H 0 **** 0.053
8961 C 104.989 45.1166 59.2675 C.2 0 **** 0
8962 C 104.437 45.3289 58.0138 C.2 0 **** 0
8963 C 103.863 46.5521 57.7084 C.2 0 **** 0
8964 C 103.861 47.5475 58.6539 C.2 0 **** 0
8965 C 104.462 47.36 59.8929 C.2 0 **** 0
8966 C 105.036 46.1424 60.1945 C.2 0 **** 0
8967 C 103.22 48.8882 58.3575 C.3 0 **** -0.106
8968 C 102.434 49.0526 57.0638 C.2 0 **** 0
8969 C 102.429 48.0657 56.1179 C.2 0 **** 0
8970 C 103.235 46.7871 56.3369 C.3 0 **** -0.106
8971 C 101.676 48.2328 54.9512 C.2 0 **** 0
8972 C 100.877 49.344 54.7684 C.2 0 **** 0
8973 C 100.962 50.3902 55.6799 C.2 0 **** 0
8974 C 101.725 50.2464 56.8449 C.2 0 **** 0
8975 C 101.764 51.2673 57.7825 C.2 0 **** -0.1268
8976 C 100.985 52.4041 57.7278 C.2 0 **** 0
8977 C 100.102 52.4494 56.5914 C.2 0 **** 0
8978 C 100.273 51.5871 55.5056 C.2 0 **** 0.042
8979 C 99.1087 53.6197 56.4455 C.3 0 **** 0
8980 C 99.1305 54.7282 57.501 C.3 0 **** 0
8981 C 100.262 54.6988 58.5476 C.2 0 **** 0
8982 C 101.12 53.5559 58.662 C.2 0 **** 0
8983 C 97.7562 55.3746 57.7763 C.3 0 **** -0.106
8984 C 96.6535 54.3251 57.9476 C.3 0 **** -0.053
8985 C 96.4807 53.4544 56.6658 C.3 0 **** -0.053
8986 C 97.7355 53.4434 55.7538 C.3 0 **** -0.106
8987 C 102.172 53.6641 59.5943 C.2 0 **** 0.042
8988 C 102.326 54.8005 60.3597 C.2 0 **** 0.052
8989 C 101.492 55.8965 60.2 C.2 0 **** 0.052
8990 C 100.505 55.8651 59.2508 C.2 0 **** 0.042
8991 C 101.645 57.1546 61.0138 C.2 0 **** 0.367
8992 C 102.75 57.1658 62.0174 C.2 0 **** 0
8993 C 103.569 56.1178 62.1666 C.2 0 **** 0
8994 C 103.436 54.8694 61.3778 C.2 0 **** 0.367
8995 C 104.679 56.1327 63.193 C.3 0 **** -0.106
8996 C 104.199 56.9127 64.4429 C.3 0 **** -0.106
8997 C 103.668 58.2933 64.0564 C.2 0 **** 0
8998 C 102.934 58.4187 62.855 C.2 0 **** 0.2405
8999 N 102.409 59.5974 62.4568 N.2 0 **** -0.481
9000 C 102.518 60.6379 63.2768 C.2 0 **** 0.2405
9001 C 103.265 60.5837 64.4767 C.2 0 **** 0
9002 C 103.848 59.3989 64.8496 C.2 0 **** 0
9003 C 104.645 59.2772 66.1429 C.3 0 **** -0.106
9004 C 105.039 60.6382 66.7296 C.3 0 **** -0.106
9005 C 103.851 61.5943 66.7064 C.3 0 **** -0.106
9006 C 103.435 61.8685 65.2487 C.3 0 **** -0.053
9007 C 102.129 62.7024 65.1811 C.3 0 **** -0.106
9008 C 101.701 62.8651 63.7467 C.2 0 **** 0
9009 C 101.883 61.8254 62.8329 C.2 0 **** 0
9010 C 101.433 61.9839 61.5099 C.2 0 **** -0.1268
9011 C 100.793 63.1513 61.1409 C.2 0 **** -0.1268
9012 C 100.571 64.1692 62.0518 C.2 0 **** 0
9013 C 101.014 64.0127 63.365 C.2 0 **** 0
9014 C 105.737 45.9388 61.5133 C.3 0 **** -0.106
9015 C 104.736 45.5479 62.6205 C.3 0 **** -0.159
9016 C 105.541 43.7572 59.6101 C.3 0 **** -0.159
9017 C 104.435 48.5102 60.8729 C.3 0 **** -0.159
9018 C 104.453 44.2289 56.9807 C.3 0 **** -0.159
9019 C 101.732 47.1155 53.909 C.3 0 **** -0.159
9020 C 99.9491 49.3352 53.5766 C.3 0 **** -0.159
9021 O 99.6852 51.9005 54.3127 O.3 0 **** -0.452
9022 C 95.3309 53.9065 55.7632 C.3 0 **** -0.159
9023 C 95.3755 55.0556 58.3766 C.3 0 **** -0.159
9024 O 99.7185 56.9471 58.9599 O.3 0 **** -0.452
9025 O 103.061 52.6509 59.7433 O.3 0 **** -0.452
9026 O 104.183 53.9591 61.5383 O.2 0 **** -0.419
9027 O 100.886 58.0705 60.8806 O.2 0 **** -0.419
9028 C 100.734 65.1079 64.3805 C.3 0 **** -0.159
9029 C 99.8341 65.407 61.5807 C.3 0 **** -0.159
9030 H 102.523 49.1114 59.1984 H 0 **** 0.053
9031 H 104.016 49.672 58.3875 H 0 **** 0.053
9032 H 104.052 46.7525 55.5757 H 0 **** 0.053
9033 H 102.566 45.9254 56.1185 H 0 **** 0.053
9034 H 102.423 51.0914 58.6031 H 0 **** 0.1268
9035 H 97.7813 56.0009 58.6699 H 0 **** 0.053
9036 H 97.5431 56.0137 56.9165 H 0 **** 0.053
9037 H 96.9511 53.6567 58.7755 H 0 **** 0.053
9038 H 96.2829 52.4254 56.9938 H 0 **** 0.053
9039 H 97.6838 54.2923 55.066 H 0 **** 0.053
9040 H 97.708 52.529 55.1488 H 0 **** 0.053
9041 H 104.991 55.1174 63.4982 H 0 **** 0.053
9042 H 105.565 56.6173 62.7479 H 0 **** 0.053
9043 H 105.046 56.9504 65.1502 H 0 **** 0.053
9044 H 103.409 56.3197 64.9505 H 0 **** 0.053
9045 H 104.044 58.7269 66.8922 H 0 **** 0.053
9046 H 105.572 58.6946 65.9946 H 0 **** 0.053
9047 H 105.864 61.0758 66.136 H 0 **** 0.053
9048 H 105.427 60.5179 67.7586 H 0 **** 0.053
9049 H 104.094 62.5475 67.2137 H 0 **** 0.053
9050 H 103.003 61.1474 67.256 H 0 **** 0.053
9051 H 104.251 62.4679 64.7748 H 0 **** 0.053
9052 H 101.334 62.1789 65.76 H 0 **** 0.053
9053 H 102.305 63.671 65.6974 H 0 **** 0.053
9054 H 101.577 61.1887 60.7678 H 0 **** 0.1268
9055 H 100.439 63.2668 60.1038 H 0 **** 0.1268
9056 H 106.297 46.8393 61.8321 H 0 **** 0.053
9057 H 106.521 45.1628 61.4539 H 0 **** 0.053
9058 H 104.196 44.6227 62.3587 H 0 **** 0.053
9059 H 103.988 46.3407 62.7848 H 0 **** 0.053
9060 H 105.245 45.3701 63.5888 H 0 **** 0.053
9061 H 105.022 42.9351 59.0796 H 0 **** 0.053
9062 H 105.427 43.5051 60.6816 H 0 **** 0.053
9063 H 106.623 43.6725 59.3665 H 0 **** 0.053
9064 H 103.393 48.7924 61.1434 H 0 **** 0.053
9065 H 104.92 49.4197 60.457 H 0 **** 0.053
9066 H 104.938 48.317 61.8321 H 0 **** 0.053
9067 H 104.41 44.6 55.9384 H 0 **** 0.053
9068 H 103.593 43.5344 57.1086 H 0 **** 0.053
9069 H 105.377 43.6219 57.0235 H 0 **** 0.053
9070 H 101.623 47.4928 52.8769 H 0 **** 0.053
9071 H 100.938 46.352 54.0752 H 0 **** 0.053
9072 H 102.704 46.571 53.8968 H 0 **** 0.053
9073 H 98.9402 49.7309 53.8287 H 0 **** 0.053
9074 H 99.7184 48.3146 53.1661 H 0 **** 0.053
9075 H 100.334 49.936 52.7119 H 0 **** 0.053
9076 H 99.4928 52.8415 54.287 H 0 **** 0.41
9077 H 94.3588 53.8119 56.265 H 0 **** 0.053
9078 H 95.2904 53.2854 54.8481 H 0 **** 0.053
9079 H 95.4619 54.9581 55.4404 H 0 **** 0.053
9080 H 95.535 55.594 59.3297 H 0 **** 0.053
9081 H 94.5437 54.3519 58.5296 H 0 **** 0.053
9082 H 95.067 55.8108 57.6264 H 0 **** 0.053
9083 H 99.9011 57.6382 59.6142 H 0 **** 0.41
9084 H 103.689 52.8616 60.4507 H 0 **** 0.41
9085 H 100.28 64.6991 65.3025 H 0 **** 0.053
9086 H 100.026 65.8778 64.019 H 0 **** 0.053
9087 H 101.66 65.6462 64.6698 H 0 **** 0.053
9088 H 98.874 65.5415 62.1117 H 0 **** 0.053
9089 H 99.5914 65.3622 60.5044 H 0 **** 0.053
9090 H 100.432 66.3233 61.73 H 0 **** 0.053
9091 C 109.291 61.3666 72.5234 C.2 0 **** 0
9092 C 109.476 59.9929 72.543 C.2 0 **** 0
9093 C 110.059 59.3569 71.4586 C.2 0 **** 0
9094 C 110.461 60.104 70.3794 C.2 0 **** 0
9095 C 110.33 61.4874 70.3763 C.2 0 **** 0
9096 C 109.751 62.1192 71.4577 C.2 0 **** 0
9097 C 111.082 59.4346 69.1695 C.3 0 **** -0.106
9098 C 111.096 57.9136 69.1023 C.2 0 **** 0
9099 C 110.695 57.1627 70.1721 C.2 0 **** 0
9100 C 110.248 57.8423 71.4645 C.3 0 **** -0.106
9101 C 110.693 55.7677 70.0727 C.2 0 **** 0
9102 C 111.016 55.1345 68.8889 C.2 0 **** 0
9103 C 111.52 55.8911 67.837 C.2 0 **** 0
9104 C 111.546 57.288 67.9269 C.2 0 **** 0
9105 C 111.995 58.0464 66.8564 C.2 0 **** -0.1268
9106 C 112.309 57.5313 65.6158 C.2 0 **** 0
9107 C 112.126 56.1069 65.5141 C.2 0 **** 0
9108 C 111.97 55.3137 66.6535 C.2 0 **** 0.042
9109 C 112.355 55.405 64.1607 C.3 0 **** 0
9110 C 112.816 56.2508 62.9715 C.3 0 **** 0
9111 C 113.199 57.7188 63.2429 C.2 0 **** 0
9112 C 112.914 58.3239 64.5111 C.2 0 **** 0
9113 C 112.302 55.7609 61.6012 C.3 0 **** -0.106
9114 C 110.805 55.4356 61.6343 C.3 0 **** -0.053
9115 C 110.483 54.3025 62.6554 C.3 0 **** -0.053
9116 C 111.565 54.1374 63.7551 C.3 0 **** -0.106
9117 C 113.376 59.6438 64.6829 C.2 0 **** 0.042
9118 C 114.033 60.3017 63.665 C.2 0 **** 0.052
9119 C 114.319 59.6706 62.4628 C.2 0 **** 0.052
9120 C 113.954 58.3637 62.2803 C.2 0 **** 0.042
9121 C 115.045 60.3608 61.3371 C.2 0 **** 0.367
9122 C 115.432 61.7819 61.574 C.2 0 **** 0
9123 C 115.159 62.3929 62.7314 C.2 0 **** 0
9124 C 114.464 61.7326 63.8565 C.2 0 **** 0.367
9125 C 115.511 63.8364 62.9426 C.3 0 **** -0.106
9126 C 115.402 64.6236 61.6294 C.3 0 **** -0.106
9127 C 116.175 63.9223 60.5065 C.2 0 **** 0
9128 C 116.175 62.5094 60.467 C.2 0 **** 0.2405
9129 N 116.796 61.8212 59.4836 N.2 0 **** -0.481
9130 C 117.344 62.5118 58.4888 C.2 0 **** 0.2405
9131 C 117.409 63.9247 58.4901 C.2 0 **** 0
9132 C 116.83 64.6205 59.5211 C.2 0 **** 0
9133 C 116.854 66.1438 59.5634 C.3 0 **** -0.106
9134 C 117.875 66.7548 58.5952 C.3 0 **** -0.106
9135 C 117.794 66.0731 57.2346 C.3 0 **** -0.106
9136 C 118.176 64.5867 57.3733 C.3 0 **** -0.053
9137 C 117.942 63.8195 56.0449 C.3 0 **** -0.106
9138 C 118.233 62.3556 56.2449 C.2 0 **** 0
9139 C 117.908 61.7292 57.4496 C.2 0 **** 0
9140 C 118.142 60.3498 57.5941 C.2 0 **** -0.1268
9141 C 118.662 59.6297 56.5361 C.2 0 **** -0.1268
9142 C 118.95 60.2357 55.326 C.2 0 **** 0
9143 C 118.714 61.6025 55.1788 C.2 0 **** 0
9144 C 109.647 63.6224 71.4928 C.3 0 **** -0.106
9145 C 108.386 64.1104 70.7494 C.3 0 **** -0.159
9146 C 108.586 62.0329 73.6767 C.3 0 **** -0.159
9147 C 110.814 62.2405 69.1586 C.3 0 **** -0.159
9148 C 109.036 59.1843 73.739 C.3 0 **** -0.159
9149 C 110.27 54.9725 71.3079 C.3 0 **** -0.159
9150 C 110.786 53.6434 68.8215 C.3 0 **** -0.159
9151 O 112.183 53.9674 66.5554 O.3 0 **** -0.452
9152 C 110.343 52.9188 62.0175 C.3 0 **** -0.159
9153 C 110.363 55.1203 60.2004 C.3 0 **** -0.159
9154 O 114.294 57.6472 61.165 O.3 0 **** -0.452
9155 O 113.186 60.2889 65.8614 O.3 0 **** -0.452
9156 O 114.258 62.3061 64.8788 O.2 0 **** -0.419
9157 O 115.245 59.8018 60.297 O.2 0 **** -0.419
9158 C 118.982 62.2649 53.8371 C.3 0 **** -0.159
9159 C 119.489 59.3752 54.2011 C.3 0 **** -0.159
9160 H 110.53 59.8002 68.273 H 0 **** 0.053
9161 H 112.133 59.8007 69.0667 H 0 **** 0.053
9162 H 110.985 57.5918 72.2655 H 0 **** 0.053
9163 H 109.283 57.3818 71.7714 H 0 **** 0.053
9164 H 112.04 59.0956 67.0434 H 0 **** 0.1268
9165 H 112.479 56.5023 60.8197 H 0 **** 0.053
9166 H 112.881 54.8663 61.3611 H 0 **** 0.053
9167 H 110.27 56.3467 61.957 H 0 **** 0.053
9168 H 109.533 54.5604 63.1411 H 0 **** 0.053
9169 H 112.341 53.4571 63.3927 H 0 **** 0.053
9170 H 111.095 53.6647 64.626 H 0 **** 0.053
9171 H 114.941 64.3251 63.7436 H 0 **** 0.053
9172 H 116.554 63.8574 63.246 H 0 **** 0.053
9173 H 115.777 65.6433 61.837 H 0 **** 0.053
9174 H 114.332 64.732 61.3663 H 0 **** 0.053
9175 H 115.848 66.5307 59.3095 H 0 **** 0.053
9176 H 117.085 66.5156 60.5783 H 0 **** 0.053
9177 H 118.898 66.6303 58.9918 H 0 **** 0.053
9178 H 117.714 67.8441 58.5012 H 0 **** 0.053
9179 H 118.459 66.565 56.4992 H 0 **** 0.053
9180 H 116.765 66.156 56.8387 H 0 **** 0.053
9181 H 119.267 64.5392 57.6076 H 0 **** 0.053
9182 H 116.885 63.9616 55.7246 H 0 **** 0.053
9183 H 118.572 64.2863 55.2565 H 0 **** 0.053
9184 H 117.904 59.8383 58.5355 H 0 **** 0.1268
9185 H 118.824 58.5466 56.6525 H 0 **** 0.1268
9186 H 110.539 64.1128 71.0558 H 0 **** 0.053
9187 H 109.625 64.0148 72.5251 H 0 **** 0.053
9188 H 107.473 63.6811 71.194 H 0 **** 0.053
9189 H 108.411 63.825 69.685 H 0 **** 0.053
9190 H 108.287 65.2134 70.7926 H 0 **** 0.053
9191 H 107.842 61.3741 74.1658 H 0 **** 0.053
9192 H 108.002 62.9212 73.368 H 0 **** 0.053
9193 H 109.296 62.3652 74.4653 H 0 **** 0.053
9194 H 110.258 61.937 68.2426 H 0 **** 0.053
9195 H 111.892 62.0572 68.9601 H 0 **** 0.053
9196 H 110.703 63.3336 69.2124 H 0 **** 0.053
9197 H 109.593 58.2353 73.8607 H 0 **** 0.053
9198 H 107.958 58.9169 73.6796 H 0 **** 0.053
9199 H 109.191 59.7233 74.6933 H 0 **** 0.053
9200 H 110.786 53.9989 71.3827 H 0 **** 0.053
9201 H 109.173 54.7756 71.3206 H 0 **** 0.053
9202 H 110.515 55.4828 72.2671 H 0 **** 0.053
9203 H 110.337 53.3329 67.8518 H 0 **** 0.053
9204 H 110.05 53.2457 69.5726 H 0 **** 0.053
9205 H 111.723 53.0442 68.9603 H 0 **** 0.053
9206 H 112.731 53.786 65.7874 H 0 **** 0.41
9207 H 109.497 52.8767 61.3192 H 0 **** 0.053
9208 H 110.167 52.1507 62.7944 H 0 **** 0.053
9209 H 111.265 52.6306 61.4744 H 0 **** 0.053
9210 H 110.546 55.9859 59.5363 H 0 **** 0.053
9211 H 109.288 54.889 60.1535 H 0 **** 0.053
9212 H 110.928 54.2649 59.7791 H 0 **** 0.053
9213 H 114.697 58.2565 60.5276 H 0 **** 0.41
9214 H 113.52 61.1968 65.7987 H 0 **** 0.41
9215 H 118.116 62.8656 53.4999 H 0 **** 0.053
9216 H 119.178 61.5469 53.018 H 0 **** 0.053
9217 H 119.863 62.9383 53.8808 H 0 **** 0.053
9218 H 118.8 59.3505 53.3366 H 0 **** 0.053
9219 H 119.635 58.3255 54.5111 H 0 **** 0.053
9220 H 120.467 59.7359 53.8375 H 0 **** 0.053
9221 C 143.048 0.343801 40.2913 C.2 0 **** 0
9222 C 143.877 1.12956 39.5065 C.2 0 **** 0
9223 C 143.986 2.48788 39.7582 C.2 0 **** 0
9224 C 143.275 3.03598 40.7976 C.2 0 **** 0
9225 C 142.486 2.24431 41.6232 C.2 0 **** 0
9226 C 142.381 0.891714 41.3729 C.2 0 **** 0
9227 C 143.355 4.52226 41.0825 C.3 0 **** -0.106
9228 C 144.099 5.4167 40.0998 C.2 0 **** 0
9229 C 144.808 4.87844 39.062 C.2 0 **** 0
9230 C 144.882 3.36321 38.8862 C.3 0 **** -0.106
9231 C 145.459 5.725 38.1588 C.2 0 **** 0
9232 C 145.337 7.09745 38.251 C.2 0 **** 0
9233 C 144.704 7.644 39.3617 C.2 0 **** 0
9234 C 144.063 6.8096 40.2854 C.2 0 **** 0
9235 C 143.381 7.35632 41.3624 C.2 0 **** -0.1268
9236 C 143.163 8.7067 41.5407 C.2 0 **** 0
9237 C 143.709 9.52747 40.4917 C.2 0 **** 0
9238 C 144.639 9.01686 39.582 C.2 0 **** 0.042
9239 C 143.467 11.0499 40.5125 C.3 0 **** 0
9240 C 142.686 11.6466 41.6859 C.3 0 **** 0
9241 C 142.341 10.7145 42.8649 C.2 0 **** 0
9242 C 142.546 9.29954 42.7599 C.2 0 **** 0
9243 C 141.836 12.8833 41.3242 C.3 0 **** -0.106
9244 C 141.03 12.6689 40.0388 C.3 0 **** -0.053
9245 C 141.957 12.3993 38.8147 C.3 0 **** -0.053
9246 C 143.364 11.8781 39.2091 C.3 0 **** -0.106
9247 C 142.275 8.54871 43.9214 C.2 0 **** 0.042
9248 C 141.811 9.15865 45.0678 C.2 0 **** 0.052
9249 C 141.651 10.5346 45.1383 C.2 0 **** 0.052
9250 C 141.978 11.3118 44.0588 C.2 0 **** 0.042
9251 C 141.158 11.2292 46.3808 C.2 0 **** 0.367
9252 C 140.842 10.3542 47.5481 C.2 0 **** 0
9253 C 141.009 9.02725 47.4929 C.2 0 **** 0
9254 C 141.491 8.32321 46.2809 C.2 0 **** 0.367
9255 C 140.676 8.1478 48.6761 C.3 0 **** -0.106
9256 C 139.443 8.73473 49.4088 C.3 0 **** -0.106
9257 C 139.658 10.2096 49.7496 C.2 0 **** 0
9258 C 140.343 11.0216 48.8174 C.2 0 **** 0.2405
9259 N 140.553 12.3375 49.0333 N.2 0 **** -0.481
9260 C 140.009 12.8878 50.1139 C.2 0 **** 0.2405
9261 C 139.339 12.124 51.0982 C.2 0 **** 0
9262 C 139.182 10.7744 50.9061 C.2 0 **** 0
9263 C 138.449 9.90699 51.9223 C.3 0 **** -0.106
9264 C 138.284 10.5945 53.2832 C.3 0 **** -0.106
9265 C 137.816 12.0345 53.1001 C.3 0 **** -0.106
9266 C 138.895 12.8385 52.3503 C.3 0 **** -0.053
9267 C 138.394 14.2633 51.9951 C.3 0 **** -0.106
9268 C 139.436 14.9818 51.1795 C.2 0 **** 0
9269 C 140.203 14.2861 50.2435 C.2 0 **** 0
9270 C 141.139 14.9875 49.4615 C.2 0 **** -0.1268
9271 C 141.264 16.3555 49.6087 C.2 0 **** -0.1268
9272 C 140.476 17.0583 50.5037 C.2 0 **** 0
9273 C 139.546 16.3652 51.2783 C.2 0 **** 0
9274 C 141.569 0.0105383 42.2882 C.3 0 **** -0.106
9275 C 140.077 0.0253107 41.8943 C.3 0 **** -0.159
9276 C 142.881 -1.11557 39.956 C.3 0 **** -0.159
9277 C 141.749 2.91933 42.7576 C.3 0 **** -0.159
9278 C 144.659 0.513326 38.3716 C.3 0 **** -0.159
9279 C 146.266 5.07315 37.0352 C.3 0 **** -0.159
9280 C 145.901 7.91631 37.115 C.3 0 **** -0.159
9281 O 145.408 9.88891 38.8635 O.3 0 **** -0.452
9282 C 142.214 13.6357 37.9507 C.3 0 **** -0.159
9283 C 140.105 13.8781 39.8598 C.3 0 **** -0.159
9284 O 141.956 12.6798 44.0937 O.3 0 **** -0.452
9285 O 142.48 7.20759 43.9335 O.3 0 **** -0.452
9286 O 141.627 7.14143 46.2711 O.2 0 **** -0.419
9287 O 140.994 12.4138 46.4002 O.2 0 **** -0.419
9288 C 138.649 17.1368 52.2316 C.3 0 **** -0.159
9289 C 140.649 18.5619 50.5865 C.3 0 **** -0.159
9290 H 142.308 4.90044 41.1467 H 0 **** 0.053
9291 H 143.806 4.66113 42.0953 H 0 **** 0.053
9292 H 145.939 3.04275 39.0501 H 0 **** 0.053
9293 H 144.647 3.13565 37.823 H 0 **** 0.053
9294 H 142.981 6.64024 42.0444 H 0 **** 0.1268
9295 H 141.144 13.1418 42.1282 H 0 **** 0.053
9296 H 142.539 13.7097 41.1991 H 0 **** 0.053
9297 H 140.393 11.7784 40.1859 H 0 **** 0.053
9298 H 141.467 11.6364 38.1954 H 0 **** 0.053
9299 H 144.022 12.7321 39.3952 H 0 **** 0.053
9300 H 143.775 11.3282 38.3537 H 0 **** 0.053
9301 H 140.461 7.10366 48.384 H 0 **** 0.053
9302 H 141.55 8.11542 49.3487 H 0 **** 0.053
9303 H 139.257 8.10262 50.294 H 0 **** 0.053
9304 H 138.551 8.61298 48.758 H 0 **** 0.053
9305 H 137.447 9.65082 51.5281 H 0 **** 0.053
9306 H 138.975 8.95019 52.0919 H 0 **** 0.053
9307 H 139.251 10.5969 53.8208 H 0 **** 0.053
9308 H 137.576 10.0298 53.9183 H 0 **** 0.053
9309 H 137.6 12.5135 54.0741 H 0 **** 0.053
9310 H 136.875 12.05 52.521 H 0 **** 0.053
9311 H 139.772 12.943 53.0355 H 0 **** 0.053
9312 H 137.446 14.1804 51.4164 H 0 **** 0.053
9313 H 138.14 14.79 52.9404 H 0 **** 0.053
9314 H 141.765 14.463 48.7295 H 0 **** 0.1268
9315 H 141.995 16.8991 48.9894 H 0 **** 0.1268
9316 H 141.668 0.307586 43.3507 H 0 **** 0.053
9317 H 141.926 -1.03476 42.2857 H 0 **** 0.053
9318 H 139.937 -0.31694 40.8554 H 0 **** 0.053
9319 H 139.648 1.03763 41.9767 H 0 **** 0.053
9320 H 139.475 -0.641012 42.5448 H 0 **** 0.053
9321 H 142.993 -1.32482 38.8741 H 0 **** 0.053
9322 H 141.874 -1.50082 40.2051 H 0 **** 0.053
9323 H 143.618 -1.75342 40.492 H 0 **** 0.053
9324 H 141.029 3.68053 42.3811 H 0 **** 0.053
9325 H 142.444 3.443 43.4488 H 0 **** 0.053
9326 H 141.151 2.24687 43.3905 H 0 **** 0.053
9327 H 145.576 1.07569 38.1084 H 0 **** 0.053
9328 H 144.049 0.444034 37.4437 H 0 **** 0.053
9329 H 145.016 -0.506878 38.6095 H 0 **** 0.053
9330 H 147.138 5.67899 36.7352 H 0 **** 0.053
9331 H 145.647 4.90254 36.1251 H 0 **** 0.053
9332 H 146.701 4.08779 37.3178 H 0 **** 0.053
9333 H 145.225 8.74981 36.8221 H 0 **** 0.053
9334 H 146.038 7.35677 36.1499 H 0 **** 0.053
9335 H 146.898 8.36873 37.3534 H 0 **** 0.053
9336 H 145.439 10.736 39.3154 H 0 **** 0.41
9337 H 141.289 14.0082 37.4896 H 0 **** 0.053
9338 H 142.916 13.3953 37.1305 H 0 **** 0.053
9339 H 142.668 14.4538 38.5434 H 0 **** 0.053
9340 H 139.419 13.9758 40.7225 H 0 **** 0.053
9341 H 139.486 13.7789 38.9555 H 0 **** 0.053
9342 H 140.679 14.8239 39.7942 H 0 **** 0.053
9343 H 141.55 12.9556 44.9296 H 0 **** 0.41
9344 H 142.203 6.837 44.7846 H 0 **** 0.41
9345 H 137.585 16.8634 52.0972 H 0 **** 0.053
9346 H 138.691 18.2339 52.0917 H 0 **** 0.053
9347 H 138.916 16.9467 53.2918 H 0 **** 0.053
9348 H 139.73 19.099 50.2887 H 0 **** 0.053
9349 H 141.452 18.9256 49.9217 H 0 **** 0.053
9350 H 140.914 18.8903 51.6068 H 0 **** 0.053
9351 C 137.639 95.9882 19.5948 C.2 0 **** 0
9352 C 137.417 94.9308 20.4632 C.2 0 **** 0
9353 C 138.301 93.865 20.497 C.2 0 **** 0
9354 C 139.401 93.8793 19.6746 C.2 0 **** 0
9355 C 139.659 94.9617 18.842 C.2 0 **** 0
9356 C 138.778 96.0231 18.8114 C.2 0 **** 0
9357 C 140.374 92.7178 19.6724 C.3 0 **** -0.106
9358 C 140.023 91.4685 20.4688 C.2 0 **** 0
9359 C 138.93 91.446 21.289 C.2 0 **** 0
9360 C 138.053 92.6878 21.4363 C.3 0 **** -0.106
9361 C 138.617 90.2759 21.9879 C.2 0 **** 0
9362 C 139.347 89.1182 21.8084 C.2 0 **** 0
9363 C 140.515 89.1696 21.056 C.2 0 **** 0
9364 C 140.853 90.3389 20.364 C.2 0 **** 0
9365 C 141.988 90.3734 19.5674 C.2 0 **** -0.1268
9366 C 142.772 89.2751 19.283 C.2 0 **** 0
9367 C 142.309 88.0559 19.8929 C.2 0 **** 0
9368 C 141.363 88.074 20.9208 C.2 0 **** 0.042
9369 C 143.038 86.7307 19.5934 C.3 0 **** 0
9370 C 144.27 86.7666 18.6857 C.3 0 **** 0
9371 C 144.813 88.1484 18.2697 C.2 0 **** 0
9372 C 144.059 89.3384 18.5361 C.2 0 **** 0
9373 C 144.468 85.4994 17.8271 C.3 0 **** -0.106
9374 C 143.166 85.0562 17.1515 C.3 0 **** -0.053
9375 C 142.062 84.7113 18.1963 C.3 0 **** -0.053
9376 C 142.292 85.3746 19.5796 C.3 0 **** -0.106
9377 C 144.681 90.554 18.1875 C.2 0 **** 0.042
9378 C 145.928 90.569 17.5997 C.2 0 **** 0.052
9379 C 146.638 89.3973 17.3834 C.2 0 **** 0.052
9380 C 146.105 88.1989 17.7775 C.2 0 **** 0.042
9381 C 148.006 89.3851 16.7538 C.2 0 **** 0.367
9382 C 148.569 90.7113 16.3642 C.2 0 **** 0
9383 C 147.898 91.8476 16.5839 C.2 0 **** 0
9384 C 146.55 91.8832 17.2005 C.2 0 **** 0.367
9385 C 148.47 93.1857 16.1758 C.3 0 **** -0.106
9386 C 149.27 93.0123 14.8604 C.3 0 **** -0.106
9387 C 150.3 91.8893 14.9894 C.2 0 **** 0
9388 C 149.947 90.736 15.7268 C.2 0 **** 0.2405
9389 N 150.79 89.6904 15.8645 N.2 0 **** -0.481
9390 C 151.944 89.7263 15.2053 C.2 0 **** 0.2405
9391 C 152.366 90.8626 14.4767 C.2 0 **** 0
9392 C 151.532 91.9488 14.3873 C.2 0 **** 0
9393 C 151.925 93.1904 13.5967 C.3 0 **** -0.106
9394 C 153.425 93.2447 13.2812 C.3 0 **** -0.106
9395 C 153.915 91.8904 12.7792 C.3 0 **** -0.106
9396 C 153.756 90.8373 13.8923 C.3 0 **** -0.053
9397 C 154.085 89.4124 13.3735 C.3 0 **** -0.106
9398 C 153.824 88.4017 14.4584 C.2 0 **** 0
9399 C 152.75 88.567 15.3343 C.2 0 **** 0
9400 C 152.498 87.5854 16.3096 C.2 0 **** -0.1268
9401 C 153.298 86.4605 16.369 C.2 0 **** -0.1268
9402 C 154.339 86.269 15.4772 C.2 0 **** 0
9403 C 154.588 87.2395 14.5071 C.2 0 **** 0
9404 C 139.07 97.2273 17.9531 C.3 0 **** -0.106
9405 C 138.588 97.0068 16.5037 C.3 0 **** -0.159
9406 C 136.627 97.102 19.5147 C.3 0 **** -0.159
9407 C 140.899 94.9103 17.9803 C.3 0 **** -0.159
9408 C 136.209 94.9312 21.3679 C.3 0 **** -0.159
9409 C 137.404 90.3125 22.9185 C.3 0 **** -0.159
9410 C 138.809 87.8593 22.446 C.3 0 **** -0.159
9411 O 141.235 86.9735 21.7205 O.3 0 **** -0.452
9412 C 141.931 83.2143 18.4844 C.3 0 **** -0.159
9413 C 143.502 83.9004 16.2017 C.3 0 **** -0.159
9414 O 146.792 87.0177 17.6994 O.3 0 **** -0.452
9415 O 144.064 91.7357 18.4392 O.3 0 **** -0.452
9416 O 145.983 92.9132 17.3784 O.2 0 **** -0.419
9417 O 148.578 88.3554 16.5433 O.2 0 **** -0.419
9418 C 155.701 87.0142 13.4974 C.3 0 **** -0.159
9419 C 155.153 84.995 15.5851 C.3 0 **** -0.159
9420 H 140.51 92.4059 18.6109 H 0 **** 0.053
9421 H 141.367 93.0917 20.0239 H 0 **** 0.053
9422 H 138.146 93.0601 22.485 H 0 **** 0.053
9423 H 136.995 92.3704 21.3089 H 0 **** 0.053
9424 H 142.197 91.3253 19.1338 H 0 **** 0.1268
9425 H 145.224 85.6538 17.0556 H 0 **** 0.053
9426 H 144.826 84.7239 18.5076 H 0 **** 0.053
9427 H 142.802 85.8992 16.5371 H 0 **** 0.053
9428 H 141.107 85.0737 17.7939 H 0 **** 0.053
9429 H 142.931 84.7247 20.1847 H 0 **** 0.053
9430 H 141.323 85.4473 20.0873 H 0 **** 0.053
9431 H 147.691 93.9555 16.0272 H 0 **** 0.053
9432 H 149.126 93.5498 16.9857 H 0 **** 0.053
9433 H 149.717 93.9917 14.6176 H 0 **** 0.053
9434 H 148.557 92.7939 14.037 H 0 **** 0.053
9435 H 151.36 93.2127 12.6454 H 0 **** 0.053
9436 H 151.664 94.1161 14.1404 H 0 **** 0.053
9437 H 153.99 93.514 14.1943 H 0 **** 0.053
9438 H 153.636 94.0379 12.54 H 0 **** 0.053
9439 H 154.972 91.94 12.4574 H 0 **** 0.053
9440 H 153.326 91.5858 11.8947 H 0 **** 0.053
9441 H 154.49 91.0877 14.6975 H 0 **** 0.053
9442 H 153.449 89.1937 12.4859 H 0 **** 0.053
9443 H 155.137 89.4055 13.0137 H 0 **** 0.053
9444 H 151.67 87.6977 17.0203 H 0 **** 0.1268
9445 H 153.093 85.6932 17.133 H 0 **** 0.1268
9446 H 140.148 97.4817 17.9425 H 0 **** 0.053
9447 H 138.598 98.1448 18.3479 H 0 **** 0.053
9448 H 137.505 96.8024 16.4727 H 0 **** 0.053
9449 H 139.106 96.1559 16.0323 H 0 **** 0.053
9450 H 138.774 97.8974 15.8706 H 0 **** 0.053
9451 H 135.596 96.7637 19.7341 H 0 **** 0.053
9452 H 136.559 97.5481 18.5043 H 0 **** 0.053
9453 H 136.859 97.9277 20.2229 H 0 **** 0.053
9454 H 140.869 94.0535 17.2701 H 0 **** 0.053
9455 H 141.822 94.7938 18.5893 H 0 **** 0.053
9456 H 141.067 95.7976 17.352 H 0 **** 0.053
9457 H 136.341 94.3225 22.2832 H 0 **** 0.053
9458 H 135.307 94.5363 20.8487 H 0 **** 0.053
9459 H 135.959 95.9435 21.7392 H 0 **** 0.053
9460 H 137.522 89.651 23.7948 H 0 **** 0.053
9461 H 136.468 90.0139 22.3936 H 0 **** 0.053
9462 H 137.218 91.3173 23.3615 H 0 **** 0.053
9463 H 138.891 86.98 21.7693 H 0 **** 0.053
9464 H 137.711 87.8848 22.6857 H 0 **** 0.053
9465 H 139.328 87.5911 23.4028 H 0 **** 0.053
9466 H 142.038 86.4485 21.6731 H 0 **** 0.41
9467 H 141.619 82.6546 17.5928 H 0 **** 0.053
9468 H 141.17 83.0362 19.2679 H 0 **** 0.053
9469 H 142.886 82.7901 18.8517 H 0 **** 0.053
9470 H 144.233 84.2238 15.4365 H 0 **** 0.053
9471 H 142.607 83.5427 15.6723 H 0 **** 0.053
9472 H 143.958 83.0475 16.7433 H 0 **** 0.053
9473 H 147.615 87.1777 17.2138 H 0 **** 0.41
9474 H 144.601 92.469 18.1034 H 0 **** 0.41
9475 H 155.348 87.1764 12.462 H 0 **** 0.053
9476 H 156.111 85.9862 13.5115 H 0 **** 0.053
9477 H 156.559 87.6955 13.6729 H 0 **** 0.053
9478 H 155.063 84.3701 14.6777 H 0 **** 0.053
9479 H 154.828 84.364 16.4311 H 0 **** 0.053
9480 H 156.225 85.2047 15.7436 H 0 **** 0.053
9481 C 186.688 58.8793 48.5098 C.2 0 **** 0
9482 C 187.703 58.1803 47.8759 C.2 0 **** 0
9483 C 187.831 56.8144 48.0724 C.2 0 **** 0
9484 C 186.934 56.1667 48.8859 C.2 0 **** 0
9485 C 185.881 56.8516 49.4799 C.2 0 **** 0
9486 C 185.754 58.2109 49.2815 C.2 0 **** 0
9487 C 187.061 54.6776 49.1381 C.3 0 **** -0.106
9488 C 188.291 53.9495 48.6131 C.2 0 **** 0
9489 C 189.189 54.5877 47.8035 C.2 0 **** 0
9490 C 188.958 56.0407 47.3938 C.3 0 **** -0.106
9491 C 190.324 53.9021 47.3578 C.2 0 **** 0
9492 C 190.594 52.6154 47.78 C.2 0 **** 0
9493 C 189.633 51.9338 48.5179 C.2 0 **** 0
9494 C 188.483 52.6002 48.9575 C.2 0 **** 0
9495 C 187.551 51.9374 49.7418 C.2 0 **** -0.1268
9496 C 187.727 50.669 50.2549 C.2 0 **** 0
9497 C 188.989 50.0703 49.9047 C.2 0 **** 0
9498 C 189.784 50.5998 48.885 C.2 0 **** 0.042
9499 C 189.361 48.6889 50.479 C.3 0 **** 0
9500 C 188.344 47.9742 51.3723 C.3 0 **** 0
9501 C 186.94 48.5981 51.5002 C.2 0 **** 0
9502 C 186.675 49.9099 50.9861 C.2 0 **** 0
9503 C 188.97 47.0955 52.4759 C.3 0 **** -0.106
9504 C 190.099 47.8212 53.2146 C.3 0 **** -0.053
9505 C 191.262 48.2121 52.2521 C.3 0 **** -0.053
9506 C 190.829 48.2922 50.7642 C.3 0 **** -0.106
9507 C 185.341 50.3532 51.0828 C.2 0 **** 0.042
9508 C 184.373 49.5654 51.6686 C.2 0 **** 0.052
9509 C 184.662 48.2899 52.1295 C.2 0 **** 0.052
9510 C 185.929 47.7879 51.985 C.2 0 **** 0.042
9511 C 183.622 47.4033 52.7623 C.2 0 **** 0.367
9512 C 182.246 47.9705 52.876 C.2 0 **** 0
9513 C 181.955 49.1945 52.4195 C.2 0 **** 0
9514 C 182.963 50.0847 51.7945 C.2 0 **** 0.367
9515 C 180.562 49.766 52.5485 C.3 0 **** -0.106
9516 C 179.938 49.2778 53.8797 C.3 0 **** -0.106
9517 C 180.017 47.7553 53.9959 C.2 0 **** 0
9518 C 181.172 47.1034 53.5088 C.2 0 **** 0.2405
9519 N 181.33 45.7654 53.5978 N.2 0 **** -0.481
9520 C 180.402 45.0692 54.2473 C.2 0 **** 0.2405
9521 C 179.211 45.6585 54.7303 C.2 0 **** 0
9522 C 179.026 47.0105 54.5853 C.2 0 **** 0
9523 C 177.772 47.7017 55.107 C.3 0 **** -0.106
9524 C 176.637 46.7191 55.4201 C.3 0 **** -0.106
9525 C 177.169 45.5184 56.1955 C.3 0 **** -0.106
9526 C 178.171 44.7399 55.3217 C.3 0 **** -0.053
9527 C 178.862 43.6081 56.1267 C.3 0 **** -0.106
9528 C 179.902 42.9359 55.2704 C.2 0 **** 0
9529 C 180.664 43.681 54.3683 C.2 0 **** 0
9530 C 181.662 43.0388 53.614 C.2 0 **** -0.1268
9531 C 181.894 41.6891 53.7961 C.2 0 **** -0.1268
9532 C 181.172 40.9528 54.7188 C.2 0 **** 0
9533 C 180.184 41.5884 55.4703 C.2 0 **** 0
9534 C 184.589 58.9593 49.8761 C.3 0 **** -0.106
9535 C 184.879 59.3717 51.3347 C.3 0 **** -0.159
9536 C 186.61 60.3753 48.3474 C.3 0 **** -0.159
9537 C 184.926 56.0642 50.3469 C.3 0 **** -0.159
9538 C 188.677 58.9034 46.9776 C.3 0 **** -0.159
9539 C 191.279 54.6487 46.4269 C.3 0 **** -0.159
9540 C 191.94 52.0386 47.4102 C.3 0 **** -0.159
9541 O 190.753 49.8151 48.3275 O.3 0 **** -0.452
9542 C 192.439 47.2352 52.2779 C.3 0 **** -0.159
9543 C 190.537 46.9341 54.3858 C.3 0 **** -0.159
9544 O 186.259 46.5005 52.3117 O.3 0 **** -0.452
9545 O 184.984 51.5636 50.5848 O.3 0 **** -0.452
9546 O 182.666 51.1662 51.4008 O.2 0 **** -0.419
9547 O 183.91 46.3214 53.1856 O.2 0 **** -0.419
9548 C 179.419 40.7958 56.5167 C.3 0 **** -0.159
9549 C 181.506 39.4838 54.8852 C.3 0 **** -0.159
9550 H 187.036 54.5285 50.2425 H 0 **** 0.053
9551 H 186.152 54.1735 48.7277 H 0 **** 0.053
9552 H 188.779 56.07 46.2919 H 0 **** 0.053
9553 H 189.905 56.596 47.5728 H 0 **** 0.053
9554 H 186.679 52.5072 49.9721 H 0 **** 0.1268
9555 H 188.223 46.7802 53.2069 H 0 **** 0.053
9556 H 189.354 46.2049 51.9739 H 0 **** 0.053
9557 H 189.68 48.7519 53.6381 H 0 **** 0.053
9558 H 191.623 49.2017 52.5612 H 0 **** 0.053
9559 H 190.919 47.2999 50.3131 H 0 **** 0.053
9560 H 191.53 48.9548 50.2421 H 0 **** 0.053
9561 H 180.55 50.871 52.5271 H 0 **** 0.053
9562 H 179.96 49.4255 51.6881 H 0 **** 0.053
9563 H 178.906 49.668 53.9202 H 0 **** 0.053
9564 H 180.476 49.761 54.723 H 0 **** 0.053
9565 H 178.021 48.2642 56.0275 H 0 **** 0.053
9566 H 177.386 48.4403 54.3817 H 0 **** 0.053
9567 H 176.18 46.3632 54.4772 H 0 **** 0.053
9568 H 175.832 47.2254 55.9844 H 0 **** 0.053
9569 H 176.347 44.8486 56.5117 H 0 **** 0.053
9570 H 177.672 45.8634 57.1174 H 0 **** 0.053
9571 H 177.593 44.267 54.4901 H 0 **** 0.053
9572 H 179.338 44.0464 57.0334 H 0 **** 0.053
9573 H 178.078 42.9095 56.4916 H 0 **** 0.053
9574 H 182.264 43.5979 52.8874 H 0 **** 0.1268
9575 H 182.681 41.1934 53.2051 H 0 **** 0.1268
9576 H 183.653 58.3678 49.8456 H 0 **** 0.053
9577 H 184.334 59.8638 49.2958 H 0 **** 0.053
9578 H 185.778 60.0073 51.3961 H 0 **** 0.053
9579 H 185.043 58.491 51.9771 H 0 **** 0.053
9580 H 184.038 59.9461 51.7726 H 0 **** 0.053
9581 H 187.601 60.8448 48.1918 H 0 **** 0.053
9582 H 186.205 60.8832 49.2434 H 0 **** 0.053
9583 H 185.969 60.6688 47.4865 H 0 **** 0.053
9584 H 185.446 55.6068 51.2182 H 0 **** 0.053
9585 H 184.444 55.2349 49.7849 H 0 **** 0.053
9586 H 184.101 56.6483 50.7805 H 0 **** 0.053
9587 H 189.137 58.2523 46.2093 H 0 **** 0.053
9588 H 189.513 59.3534 47.558 H 0 **** 0.053
9589 H 188.197 59.7182 46.4034 H 0 **** 0.053
9590 H 191.781 53.9777 45.7072 H 0 **** 0.053
9591 H 192.072 55.1904 46.9921 H 0 **** 0.053
9592 H 190.771 55.4029 45.7841 H 0 **** 0.053
9593 H 192.402 51.4803 48.2545 H 0 **** 0.053
9594 H 192.726 52.8011 47.1587 H 0 **** 0.053
9595 H 191.896 51.3394 46.5348 H 0 **** 0.053
9596 H 190.551 48.8904 48.4926 H 0 **** 0.41
9597 H 192.925 47.2104 53.2624 H 0 **** 0.053
9598 H 193.207 47.536 51.5403 H 0 **** 0.053
9599 H 192.116 46.2084 52.0161 H 0 **** 0.053
9600 H 189.692 46.7522 55.0754 H 0 **** 0.053
9601 H 191.342 47.4074 54.9676 H 0 **** 0.053
9602 H 190.889 45.9428 54.0364 H 0 **** 0.053
9603 H 185.502 46.0995 52.764 H 0 **** 0.41
9604 H 184.049 51.7369 50.7713 H 0 **** 0.41
9605 H 179.409 41.3163 57.4926 H 0 **** 0.053
9606 H 179.85 39.7968 56.7194 H 0 **** 0.053
9607 H 178.365 40.6262 56.2137 H 0 **** 0.053
9608 H 181.879 39.2589 55.9011 H 0 **** 0.053
9609 H 182.292 39.1538 54.1838 H 0 **** 0.053
9610 H 180.629 38.8394 54.6996 H 0 **** 0.053
9611 C 174.027 39.9045 50.5056 C.2 0 **** 0
9612 C 173.611 39.4241 49.2738 C.2 0 **** 0
9613 C 174.519 38.8086 48.4275 C.2 0 **** 0
9614 C 175.824 38.6695 48.8311 C.2 0 **** 0
9615 C 176.236 39.0989 50.0872 C.2 0 **** 0
9616 C 175.33 39.7096 50.9295 C.2 0 **** 0
9617 C 176.846 38.0212 47.9184 C.3 0 **** -0.106
9618 C 176.44 37.6826 46.4904 C.2 0 **** 0
9619 C 175.143 37.8195 46.0807 C.2 0 **** 0
9620 C 174.073 38.2947 47.0612 C.3 0 **** -0.106
9621 C 174.804 37.5267 44.7558 C.2 0 **** 0
9622 C 175.768 37.1731 43.8325 C.2 0 **** 0
9623 C 177.065 36.9357 44.2717 C.2 0 **** 0
9624 C 177.417 37.2068 45.5994 C.2 0 **** 0
9625 C 178.725 37.0247 46.0243 C.2 0 **** -0.1268
9626 C 179.778 36.7113 45.1899 C.2 0 **** 0
9627 C 179.404 36.5859 43.8049 C.2 0 **** 0
9628 C 178.065 36.47 43.423 C.2 0 **** 0.042
9629 C 180.492 36.3236 42.7445 C.3 0 **** 0
9630 C 181.94 36.157 43.2131 C.3 0 **** 0
9631 C 182.198 36.0847 44.7315 C.2 0 **** 0
9632 C 181.152 36.3892 45.6638 C.2 0 **** 0
9633 C 182.998 36.665 42.2107 C.3 0 **** -0.106
9634 C 182.642 38.0469 41.6535 C.3 0 **** -0.053
9635 C 181.284 38.0285 40.8877 C.3 0 **** -0.053
9636 C 180.362 36.8493 41.2948 C.3 0 **** -0.106
9637 C 181.469 36.2146 47.0258 C.2 0 **** 0.042
9638 C 182.727 35.8034 47.4136 C.2 0 **** 0.052
9639 C 183.704 35.4918 46.4798 C.2 0 **** 0.052
9640 C 183.415 35.572 45.1433 C.2 0 **** 0.042
9641 C 185.081 35.0286 46.8747 C.2 0 **** 0.367
9642 C 185.352 34.9233 48.3388 C.2 0 **** 0
9643 C 184.41 35.2076 49.2458 C.2 0 **** 0
9644 C 183.048 35.6661 48.8801 C.2 0 **** 0.367
9645 C 184.696 35.109 50.7268 C.3 0 **** -0.106
9646 C 186.162 35.5367 50.9873 C.3 0 **** -0.106
9647 C 187.127 34.7537 50.097 C.2 0 **** 0
9648 C 186.731 34.4589 48.7726 C.2 0 **** 0.2405
9649 N 187.536 33.7945 47.9164 N.2 0 **** -0.481
9650 C 188.768 33.4988 48.3192 C.2 0 **** 0.2405
9651 C 189.212 33.74 49.64 C.2 0 **** 0
9652 C 188.37 34.3617 50.5273 C.2 0 **** 0
9653 C 188.805 34.667 51.9553 C.3 0 **** -0.106
9654 C 190.053 33.8831 52.3783 C.3 0 **** -0.106
9655 C 191.111 33.9319 51.2813 C.3 0 **** -0.106
9656 C 190.58 33.2286 50.0177 C.3 0 **** -0.053
9657 C 191.556 33.3992 48.8237 C.3 0 **** -0.106
9658 C 190.959 32.7856 47.5854 C.2 0 **** 0
9659 C 189.585 32.8675 47.3483 C.2 0 **** 0
9660 C 189.057 32.3278 46.1617 C.2 0 **** -0.1268
9661 C 189.906 31.7515 45.2363 C.2 0 **** -0.1268
9662 C 191.273 31.7045 45.4448 C.2 0 **** 0
9663 C 191.799 32.2421 46.6192 C.2 0 **** 0
9664 C 175.747 40.1346 52.3145 C.3 0 **** -0.106
9665 C 176.408 41.5293 52.2944 C.3 0 **** -0.159
9666 C 173.046 40.6392 51.3808 C.3 0 **** -0.159
9667 C 177.685 38.8936 50.4648 C.3 0 **** -0.159
9668 C 172.172 39.576 48.8454 C.3 0 **** -0.159
9669 C 173.335 37.6625 44.3562 C.3 0 **** -0.159
9670 C 175.335 37.0785 42.3885 C.3 0 **** -0.159
9671 O 177.772 35.9774 42.1827 O.3 0 **** -0.452
9672 C 181.434 37.9169 39.3691 C.3 0 **** -0.159
9673 C 183.825 38.5273 40.8045 C.3 0 **** -0.159
9674 O 184.289 35.1732 44.1684 O.3 0 **** -0.452
9675 O 180.532 36.436 47.981 O.3 0 **** -0.452
9676 O 182.238 35.9093 49.715 O.2 0 **** -0.419
9677 O 185.916 34.8032 46.0472 O.2 0 **** -0.419
9678 C 193.303 32.2332 46.8338 C.3 0 **** -0.159
9679 C 192.143 31.0846 44.3696 C.3 0 **** -0.159
9680 H 177.718 38.7128 47.859 H 0 **** 0.053
9681 H 177.213 37.0874 48.4104 H 0 **** 0.053
9682 H 173.353 37.4572 47.2278 H 0 **** 0.053
9683 H 173.498 39.1076 46.565 H 0 **** 0.053
9684 H 178.881 37.195 47.0657 H 0 **** 0.1268
9685 H 183.988 36.7193 42.6679 H 0 **** 0.053
9686 H 183.033 35.9275 41.4057 H 0 **** 0.053
9687 H 182.541 38.7387 42.5089 H 0 **** 0.053
9688 H 180.766 38.9685 41.119 H 0 **** 0.053
9689 H 180.608 35.977 40.6826 H 0 **** 0.053
9690 H 179.328 37.1315 41.0641 H 0 **** 0.053
9691 H 184.021 35.7397 51.3342 H 0 **** 0.053
9692 H 184.531 34.0662 51.0489 H 0 **** 0.053
9693 H 186.355 35.4051 52.0659 H 0 **** 0.053
9694 H 186.253 36.6272 50.7958 H 0 **** 0.053
9695 H 189.015 35.7498 52.0501 H 0 **** 0.053
9696 H 188.003 34.4372 52.6803 H 0 **** 0.053
9697 H 189.784 32.827 52.5705 H 0 **** 0.053
9698 H 190.455 34.2797 53.3292 H 0 **** 0.053
9699 H 192.053 33.4525 51.6103 H 0 **** 0.053
9700 H 191.355 34.9837 51.0451 H 0 **** 0.053
9701 H 190.506 32.1376 50.2478 H 0 **** 0.053
9702 H 191.743 34.485 48.6606 H 0 **** 0.053
9703 H 192.534 32.952 49.105 H 0 **** 0.053
9704 H 187.98 32.365 45.9574 H 0 **** 0.1268
9705 H 189.486 31.3345 44.3066 H 0 **** 0.1268
9706 H 176.443 39.4104 52.7817 H 0 **** 0.053
9707 H 174.896 40.1554 53.0179 H 0 **** 0.053
9708 H 175.722 42.287 51.8822 H 0 **** 0.053
9709 H 177.323 41.5317 51.6798 H 0 **** 0.053
9710 H 176.695 41.8615 53.3122 H 0 **** 0.053
9711 H 172.271 41.1788 50.801 H 0 **** 0.053
9712 H 173.523 41.4254 51.9958 H 0 **** 0.053
9713 H 172.515 39.9545 52.0782 H 0 **** 0.053
9714 H 178.368 39.4439 49.7791 H 0 **** 0.053
9715 H 177.976 37.8219 50.4213 H 0 **** 0.053
9716 H 177.956 39.2354 51.4747 H 0 **** 0.053
9717 H 171.847 38.8177 48.1069 H 0 **** 0.053
9718 H 171.984 40.5715 48.3854 H 0 **** 0.053
9719 H 171.465 39.4636 49.69 H 0 **** 0.053
9720 H 173.04 36.943 43.5719 H 0 **** 0.053
9721 H 173.098 38.685 43.9824 H 0 **** 0.053
9722 H 172.629 37.4548 45.1923 H 0 **** 0.053
9723 H 176.083 37.5279 41.6977 H 0 **** 0.053
9724 H 174.397 37.6451 42.1396 H 0 **** 0.053
9725 H 175.16 36.0251 42.0473 H 0 **** 0.053
9726 H 178.52 35.4722 41.8538 H 0 **** 0.41
9727 H 181.95 38.7891 38.9463 H 0 **** 0.053
9728 H 180.44 37.8569 38.886 H 0 **** 0.053
9729 H 181.993 37.0032 39.0857 H 0 **** 0.053
9730 H 184.744 38.593 41.4171 H 0 **** 0.053
9731 H 183.637 39.5262 40.3832 H 0 **** 0.053
9732 H 184.04 37.8271 39.9729 H 0 **** 0.053
9733 H 185.139 34.9726 44.5878 H 0 **** 0.41
9734 H 180.92 36.3183 48.8611 H 0 **** 0.41
9735 H 193.677 33.2332 47.1229 H 0 **** 0.053
9736 H 193.879 31.9527 45.9309 H 0 **** 0.053
9737 H 193.601 31.5182 47.6286 H 0 **** 0.053
9738 H 192.845 31.8189 43.9334 H 0 **** 0.053
9739 H 191.547 30.6865 43.53 H 0 **** 0.053
9740 H 192.739 30.2409 44.7588 H 0 **** 0.053
9741 C1 168.337 57.4413 48.0772 C.ar 0 **** 0.042
9742 C2 167.019 57.514 47.6673 C.ar 0 **** -0.1268
9743 C3 166.108 58.3003 48.3529 C.ar 0 **** 0
9744 C4 166.494 59.0372 49.4731 C.ar 0 **** 0
9745 C5 167.833 58.9673 49.8714 C.ar 0 **** -0.1268
9746 C6 168.75 58.1731 49.1992 C.ar 0 **** 0
9747 C7 165.315 59.7401 49.955 C.ar 0 **** 0
9748 C8 164.263 59.4233 49.1133 C.ar 0 **** 0
9749 C9 164.657 58.4834 48.0258 C.3 0 **** -0.106
9750 C10 163.006 59.9755 49.3321 C.ar 0 **** 0
9751 C11 162.786 60.8623 50.4068 C.ar 0 **** 0
9752 C12 163.901 61.1443 51.2431 C.ar 0 **** 0
9753 C13 165.163 60.5782 51.0313 C.ar 0 **** 0
9754 C14 166.31 60.9116 51.9441 C.3 0 **** -0.106
9755 C15 165.815 61.1798 53.3657 C.3 0 **** -0.106
9756 C16 164.882 62.3584 53.3094 C.3 0 **** -0.106
9757 C17 163.686 62.0954 52.4191 C.ar 0 **** 0
9758 C18 162.493 62.6987 52.6603 C.ar 0 **** 0
9759 C19 161.418 62.4645 51.8497 C.ar 0 **** 0
9760 C20 161.495 61.4523 50.6399 C.ar 0 **** 0
9761 C21 160.419 61.0379 49.7576 C.ar 0 **** 0
9762 C22 160.74 60.179 48.701 C.ar 0 **** 0
9763 C23 161.964 59.6516 48.4788 C.ar 0 **** 0.042
9764 C24 160.108 63.1872 52.1242 C.3 0 **** -0.106
9765 C25 160.155 64.3404 53.1688 C.ar 0 **** 0
9766 C26 161.256 64.5069 53.9727 C.ar 0 **** 0
9767 C27 162.462 63.6319 53.8674 C.3 0 **** -0.106
9768 C28 161.277 65.5056 54.944 C.ar 0 **** 0.042
9769 C29 160.201 66.3523 55.1503 C.ar 0 **** 0
9770 C30 159.104 66.1767 54.3217 C.ar 0 **** 0
9771 C31 159.064 65.1883 53.3417 C.ar 0 **** 0
9772 C32 157.852 67.0606 54.4486 C.ar 0 **** 0
9773 C33 157.945 68.1232 55.5483 C.3 0 **** -0.106
9774 C34 158.816 67.6798 56.7223 C.3 0 **** -0.106
9775 C35 160.231 67.4318 56.2055 C.3 0 **** -0.106
9776 C36 157.814 65.0843 52.4909 C.ar 0 **** -0.1268
9777 C37 156.771 65.9283 52.7041 C.ar 0 **** 0.0265
9778 C38 156.774 66.8832 53.6448 C.ar 0 **** -0.1268
9779 C39 159.637 59.805 47.7817 C.3 0 **** -0.106
9780 C40 158.54 60.54 48.4811 C.ar 0 **** 0
9781 C41 158.979 61.2447 49.6037 C.ar 0 **** 0
9782 C42 157.973 61.9169 50.3279 C.ar 0 **** -0.1268
9783 C43 156.625 61.9114 49.9128 C.ar 0 **** 0
9784 C44 156.223 61.2033 48.7603 C.ar 0 **** 0
9785 C45 157.206 60.5005 48.0458 C.ar 0 **** 0
9786 C46 156.819 59.7585 46.9084 C.ar 0 **** -0.1268
9787 C47 155.507 59.7004 46.4663 C.ar 0 **** 0
9788 C48 154.553 60.3969 47.1861 C.ar 0 **** -0.1268
9789 C49 154.876 61.1507 48.3269 C.ar 0 **** 0
9790 C50 153.906 61.8505 49.0664 C.ar 0 **** 0.042
9791 C51 154.268 62.5596 50.1946 C.ar 0 **** -0.1268
9792 C52 155.593 62.5879 50.6205 C.ar 0 **** -0.1268
9793 O53 169.245 56.6643 47.3984 O.3 0 **** -0.452
9794 C54 170.2 58.1195 49.6546 C.3 0 **** -0.159
9795 O55 162.153 58.8206 47.4391 O.3 0 **** -0.452
9796 C56 155.236 58.8529 45.2281 C.3 0 **** -0.106
9797 C57 153.799 58.9917 44.7117 C.3 0 **** -0.159
9798 O58 155.681 65.7937 51.9299 O.3 0 **** -0.4365
9799 O59 162.36 65.7032 55.7561 O.3 0 **** -0.452
9800 O60 152.594 61.8843 48.7585 O.3 0 **** -0.452
9801 H61 166.653 56.9509 46.7782 H 0 **** 0.1268
9802 H62 168.245 59.5309 50.7192 H 0 **** 0.1268
9803 H63 164.132 57.5121 48.0709 H 0 **** 0.053
9804 H64 164.55 58.911 47.0119 H 0 **** 0.053
9805 H65 167.021 60.0939 52.0099 H 0 **** 0.053
9806 H66 166.85 61.814 51.5816 H 0 **** 0.053
9807 H67 165.312 60.2727 53.7811 H 0 **** 0.053
9808 H68 166.688 61.3922 54.0518 H 0 **** 0.053
9809 H69 164.567 62.5941 54.3334 H 0 **** 0.053
9810 H70 165.44 63.2354 52.9372 H 0 **** 0.053
9811 H71 159.745 63.6176 51.1671 H 0 **** 0.053
9812 H72 163.341 64.2794 53.794 H 0 **** 0.053
9813 H73 158.365 69.0512 55.1091 H 0 **** 0.053
9814 H74 156.922 68.3577 55.8713 H 0 **** 0.053
9815 H75 158.824 68.4566 57.4968 H 0 **** 0.053
9816 H76 158.405 66.7698 57.1821 H 0 **** 0.053
9817 H77 160.64 68.3519 55.7666 H 0 **** 0.053
9818 H78 160.886 67.1438 57.0201 H 0 **** 0.053
9819 H79 157.796 64.3392 51.7189 H 0 **** 0.1268
9820 H80 155.934 67.5441 53.7874 H 0 **** 0.1268
9821 H81 159.776 60.1864 46.7578 H 0 **** 0.053
9822 H82 159.433 58.7224 47.7628 H 0 **** 0.053
9823 H83 158.128 62.4583 51.2497 H 0 **** 0.1268
9824 H84 157.583 59.1993 46.3378 H 0 **** 0.1268
9825 H85 153.522 60.3496 46.846 H 0 **** 0.1268
9826 H86 153.523 63.1107 50.793 H 0 **** 0.1268
9827 H87 155.871 63.1378 51.5637 H 0 **** 0.1268
9828 H88 168.793 56.2457 46.6781 H 0 **** 0.41
9829 H89 170.632 57.129 49.4695 H 0 **** 0.053
9830 H90 170.3 58.3162 50.731 H 0 **** 0.053
9831 H91 170.805 58.8596 49.107 H 0 **** 0.053
9832 H92 161.344 58.6999 46.9609 H 0 **** 0.41
9833 H93 155.922 59.1442 44.4267 H 0 **** 0.053
9834 H94 153.636 58.3737 43.8067 H 0 **** 0.053
9835 H95 153.562 60.0375 44.437 H 0 **** 0.053
9836 H96 153.06 58.6577 45.4636 H 0 **** 0.053
9837 H97 155.823 65.1562 51.2484 H 0 **** 0.41
9838 H98 163.035 65.0755 55.5557 H 0 **** 0.41
9839 H99 152.44 61.3666 47.9787 H 0 **** 0.41
9840 H100 159.414 62.4288 52.5414 H 0 **** 0.053
9841 H101 162.542 63.014 54.7693 H 0 **** 0.053
9842 H102 155.429 57.7983 45.4552 H 0 **** 0.053
9843 C1 132.778 84.8959 59.5203 C.ar 0 **** 0.042
9844 C2 134.09 84.4632 59.4725 C.ar 0 **** -0.1268
9845 C3 134.916 84.5862 60.5779 C.ar 0 **** 0
9846 C4 134.447 85.1495 61.7655 C.ar 0 **** 0
9847 C5 133.114 85.5713 61.8077 C.ar 0 **** -0.1268
9848 C6 132.284 85.464 60.7024 C.ar 0 **** 0
9849 C7 135.55 85.136 62.7143 C.ar 0 **** 0
9850 C8 136.638 84.5583 62.085 C.ar 0 **** 0
9851 C9 136.349 84.1597 60.6786 C.3 0 **** -0.106
9852 C10 137.837 84.4012 62.7723 C.ar 0 **** 0
9853 C11 137.959 84.8234 64.1129 C.ar 0 **** 0
9854 C12 136.81 85.4176 64.7047 C.ar 0 **** 0
9855 C13 135.608 85.5884 64.0089 C.ar 0 **** 0
9856 C14 134.423 86.2207 64.6823 C.3 0 **** -0.106
9857 C15 134.869 87.2575 65.7134 C.3 0 **** -0.106
9858 C16 135.692 86.5439 66.751 C.3 0 **** -0.106
9859 C17 136.921 85.8911 66.1531 C.ar 0 **** 0
9860 C18 138.05 85.7275 66.8901 C.ar 0 **** 0
9861 C19 139.154 85.1308 66.3489 C.ar 0 **** 0
9862 C20 139.187 84.6566 64.8427 C.ar 0 **** 0
9863 C21 140.31 84.0961 64.1119 C.ar 0 **** 0
9864 C22 140.085 83.6778 62.7958 C.ar 0 **** 0
9865 C23 138.917 83.8186 62.1298 C.ar 0 **** 0.042
9866 C24 140.389 84.9272 67.2141 C.3 0 **** -0.106
9867 C25 140.222 85.1906 68.7392 C.ar 0 **** 0
9868 C26 139.098 85.8189 69.2177 C.ar 0 **** 0
9869 C27 137.978 86.2434 68.3247 C.3 0 **** -0.106
9870 C28 138.971 86.1024 70.576 C.ar 0 **** 0.042
9871 C29 139.962 85.7833 71.4884 C.ar 0 **** 0
9872 C30 141.084 85.1391 70.9889 C.ar 0 **** 0
9873 C31 141.228 84.8418 69.6361 C.ar 0 **** 0
9874 C32 142.248 84.7276 71.9045 C.ar 0 **** 0
9875 C33 142.042 85.0874 73.3792 C.3 0 **** -0.106
9876 C34 141.197 86.3464 73.5645 C.3 0 **** -0.106
9877 C35 139.818 86.095 72.9588 C.3 0 **** -0.106
9878 C36 142.495 84.1347 69.1982 C.ar 0 **** -0.1268
9879 C37 143.455 83.8245 70.1091 C.ar 0 **** 0.0265
9880 C38 143.35 84.1082 71.4149 C.ar 0 **** -0.1268
9881 C39 141.231 83.0633 62.0812 C.3 0 **** -0.106
9882 C40 142.245 83.2192 63.1667 C.ar 0 **** 0
9883 C41 141.727 83.8033 64.3244 C.ar 0 **** 0
9884 C42 142.657 84.0169 65.363 C.ar 0 **** -0.1268
9885 C43 144.006 83.621 65.2495 C.ar 0 **** 0
9886 C44 144.488 83.0149 64.0697 C.ar 0 **** 0
9887 C45 143.584 82.8252 63.0123 C.ar 0 **** 0
9888 C46 144.053 82.2504 61.8109 C.ar 0 **** -0.1268
9889 C47 145.373 81.8619 61.635 C.ar 0 **** 0
9890 C48 146.247 82.0602 62.6877 C.ar 0 **** -0.1268
9891 C49 145.841 82.6287 63.9069 C.ar 0 **** 0
9892 C50 146.732 82.8404 64.9746 C.ar 0 **** 0.042
9893 C51 146.29 83.425 66.1452 C.ar 0 **** -0.1268
9894 C52 144.961 83.8173 66.2853 C.ar 0 **** -0.1268
9895 O53 131.955 84.7742 58.4268 O.3 0 **** -0.452
9896 C54 130.838 85.929 60.7794 C.3 0 **** -0.159
9897 O55 138.821 83.3961 60.8567 O.3 0 **** -0.452
9898 C56 145.738 81.2632 60.2807 C.3 0 **** -0.106
9899 C57 147.163 80.7015 60.2406 C.3 0 **** -0.159
9900 O58 144.564 83.2031 69.672 O.3 0 **** -0.4365
9901 O59 137.861 86.7193 71.0864 O.3 0 **** -0.452
9902 O60 148.039 82.5132 64.9503 O.3 0 **** -0.452
9903 H61 134.519 84.0022 58.5533 H 0 **** 0.1268
9904 H62 132.64 85.9986 62.7014 H 0 **** 0.1268
9905 H63 136.959 84.7001 59.9325 H 0 **** 0.053
9906 H64 136.431 83.0715 60.5015 H 0 **** 0.053
9907 H65 133.787 86.7406 63.9713 H 0 **** 0.053
9908 H66 133.809 85.4504 65.1988 H 0 **** 0.053
9909 H67 135.446 88.0762 65.2183 H 0 **** 0.053
9910 H68 133.971 87.7535 66.1865 H 0 **** 0.053
9911 H69 135.969 87.2694 67.5259 H 0 **** 0.053
9912 H70 135.062 85.7798 67.2395 H 0 **** 0.053
9913 H71 140.725 83.8763 67.0916 H 0 **** 0.053
9914 H72 137.045 85.866 68.7539 H 0 **** 0.053
9915 H73 141.547 84.2339 73.886 H 0 **** 0.053
9916 H74 143.035 85.1964 73.8363 H 0 **** 0.053
9917 H75 141.107 86.583 74.6319 H 0 **** 0.053
9918 H76 141.683 87.2075 73.0831 H 0 **** 0.053
9919 H77 139.334 85.2462 73.4603 H 0 **** 0.053
9920 H78 139.18 86.9601 73.0994 H 0 **** 0.053
9921 H79 142.593 83.8824 68.1595 H 0 **** 0.1268
9922 H80 144.124 83.8485 72.1193 H 0 **** 0.1268
9923 H81 141.073 82.0004 61.8394 H 0 **** 0.053
9924 H82 141.533 83.6208 61.1802 H 0 **** 0.053
9925 H83 142.44 84.5089 66.2998 H 0 **** 0.1268
9926 H84 143.353 82.0958 60.9704 H 0 **** 0.1268
9927 H85 147.284 81.7619 62.5521 H 0 **** 0.1268
9928 H86 146.972 83.608 66.9916 H 0 **** 0.1268
9929 H87 144.62 84.3281 67.2297 H 0 **** 0.1268
9930 H88 132.451 84.3734 57.7264 H 0 **** 0.41
9931 H89 130.5 86.32 59.8124 H 0 **** 0.053
9932 H90 130.704 86.7347 61.5145 H 0 **** 0.053
9933 H91 130.176 85.0922 61.0546 H 0 **** 0.053
9934 H92 139.644 83.0215 60.5734 H 0 **** 0.41
9935 H93 145.04 80.4562 60.0355 H 0 **** 0.053
9936 H94 147.395 80.2654 59.2487 H 0 **** 0.053
9937 H95 147.309 79.9003 60.9904 H 0 **** 0.053
9938 H96 147.918 81.4885 60.4268 H 0 **** 0.053
9939 H97 144.487 82.9793 68.7581 H 0 **** 0.41
9940 H98 137.251 86.9147 70.3938 H 0 **** 0.41
9941 H99 148.253 82.1352 64.1068 H 0 **** 0.41
9942 H100 141.142 85.6608 66.8609 H 0 **** 0.053
9943 H101 137.941 87.3383 68.2843 H 0 **** 0.053
9944 H102 145.639 82.0274 59.5015 H 0 **** 0.053
9945 C1 119.307 20.2042 23.295 C.ar 0 **** 0.042
9946 C2 118.876 18.8982 23.1547 C.ar 0 **** -0.1268
9947 C3 119.084 18.2079 21.9723 C.ar 0 **** 0
9948 C4 119.732 18.8111 20.8934 C.ar 0 **** 0
9949 C5 120.175 20.1282 21.0498 C.ar 0 **** -0.1268
9950 C6 119.959 20.8322 22.2254 C.ar 0 **** 0
9951 C7 119.785 17.8306 19.8197 C.ar 0 **** 0
9952 C8 119.187 16.6704 20.2796 C.ar 0 **** 0
9953 C9 118.683 16.7947 21.6766 C.3 0 **** -0.106
9954 C10 119.113 15.5518 19.4568 C.ar 0 **** 0
9955 C11 119.644 15.5827 18.1504 C.ar 0 **** 0
9956 C12 120.238 16.8038 17.729 C.ar 0 **** 0
9957 C13 120.301 17.9337 18.552 C.ar 0 **** 0
9958 C14 120.942 19.2001 18.0582 C.3 0 **** -0.106
9959 C15 120.75 19.3563 16.5495 C.3 0 **** -0.106
9960 C16 121.415 18.1839 15.8813 C.3 0 **** -0.106
9961 C17 120.812 16.8643 16.3147 C.ar 0 **** 0
9962 C18 120.808 15.794 15.479 C.ar 0 **** 0
9963 C19 120.27 14.6026 15.877 C.ar 0 **** 0
9964 C20 119.587 14.4306 17.2907 C.ar 0 **** 0
9965 C21 118.898 13.2617 17.8089 C.ar 0 **** 0
9966 C22 118.432 13.3145 19.1268 C.ar 0 **** 0
9967 C23 118.515 14.3962 19.9328 C.ar 0 **** 0.042
9968 C24 120.317 13.4115 14.9309 C.3 0 **** -0.106
9969 C25 121.203 13.5661 13.6609 C.ar 0 **** 0
9970 C26 121.693 14.7973 13.3 C.ar 0 **** 0
9971 C27 121.439 16.0271 14.1093 C.3 0 **** -0.106
9972 C28 122.442 14.9456 12.1345 C.ar 0 **** 0.042
9973 C29 122.71 13.8797 11.2931 C.ar 0 **** 0
9974 C30 122.218 12.6426 11.68 C.ar 0 **** 0
9975 C31 121.472 12.4717 12.8429 C.ar 0 **** 0
9976 C32 122.458 11.382 10.8329 C.ar 0 **** 0
9977 C33 123.274 11.6298 9.55998 C.3 0 **** -0.106
9978 C34 123.064 13.0309 8.98956 C.3 0 **** -0.106
9979 C35 123.522 14.0489 10.0313 C.3 0 **** -0.106
9980 C36 120.983 11.0755 13.1715 C.ar 0 **** -0.1268
9981 C37 121.263 10.0397 12.3372 C.ar 0 **** 0.0265
9982 C38 121.97 10.1731 11.2062 C.ar 0 **** -0.1268
9983 C39 117.774 12.094 19.655 C.3 0 **** -0.106
9984 C40 117.857 11.2715 18.4103 C.ar 0 **** 0
9985 C41 118.497 11.9292 17.3582 C.ar 0 **** 0
9986 C42 118.558 11.2127 16.1447 C.ar 0 **** -0.1268
9987 C43 118.047 9.90345 16.0243 C.ar 0 **** 0
9988 C44 117.424 9.26412 17.1171 C.ar 0 **** 0
9989 C45 117.324 9.97527 18.3236 C.ar 0 **** 0
9990 C46 116.676 9.36602 19.4196 C.ar 0 **** -0.1268
9991 C47 116.136 8.09036 19.3525 C.ar 0 **** 0
9992 C48 116.243 7.4086 18.1543 C.ar 0 **** -0.1268
9993 C49 116.875 7.96176 17.0285 C.ar 0 **** 0
9994 C50 116.977 7.27268 15.8069 C.ar 0 **** 0.042
9995 C51 117.585 7.86863 14.7198 C.ar 0 **** -0.1268
9996 C52 118.104 9.15726 14.8148 C.ar 0 **** -0.1268
9997 O53 119.105 20.8893 24.4694 O.3 0 **** -0.452
9998 C54 120.454 22.2635 22.3668 C.3 0 **** -0.159
9999 O55 118.016 14.3382 21.1797 O.3 0 **** -0.452
10000 C56 115.458 7.56444 20.6124 C.3 0 **** -0.106
10001 C57 115.053 6.09002 20.5024 C.3 0 **** -0.159
10002 O58 120.803 8.82186 12.6678 O.3 0 **** -0.4365
10003 O59 122.951 16.1563 11.7499 O.3 0 **** -0.452
10004 O60 116.506 6.02783 15.5959 O.3 0 **** -0.452
10005 H61 118.355 18.3635 23.982 H 0 **** 0.1268
10006 H62 120.719 20.6824 20.273 H 0 **** 0.1268
10007 H63 117.587 16.6848 21.762 H 0 **** 0.053
10008 H64 119.177 16.1066 22.3872 H 0 **** 0.053
10009 H65 120.503 20.0792 18.5212 H 0 **** 0.053
10010 H66 122.032 19.1985 18.2777 H 0 **** 0.053
10011 H67 119.662 19.4138 16.2982 H 0 **** 0.053
10012 H68 121.202 20.3291 16.1942 H 0 **** 0.053
10013 H69 121.333 18.3174 14.7956 H 0 **** 0.053
10014 H70 122.492 18.2013 16.1245 H 0 **** 0.053
10015 H71 120.696 12.5361 15.4988 H 0 **** 0.053
10016 H72 122.401 16.5209 14.2809 H 0 **** 0.053
10017 H73 124.348 11.485 9.79472 H 0 **** 0.053
10018 H74 122.999 10.8531 8.8329 H 0 **** 0.053
10019 H75 123.639 13.1485 8.06325 H 0 **** 0.053
10020 H76 122.006 13.1863 8.73347 H 0 **** 0.053
10021 H77 124.585 13.8989 10.2651 H 0 **** 0.053
10022 H78 123.415 15.0575 9.64755 H 0 **** 0.053
10023 H79 120.429 10.9414 14.0805 H 0 **** 0.1268
10024 H80 122.182 9.33167 10.5649 H 0 **** 0.1268
10025 H81 118.332 11.6205 20.4778 H 0 **** 0.053
10026 H82 116.724 12.2565 19.9481 H 0 **** 0.053
10027 H83 118.963 11.5944 15.2188 H 0 **** 0.1268
10028 H84 116.588 9.91598 20.3747 H 0 **** 0.1268
10029 H85 115.815 6.41084 18.0961 H 0 **** 0.1268
10030 H86 117.667 7.35248 13.7489 H 0 **** 0.1268
10031 H87 118.564 9.64844 13.9112 H 0 **** 0.1268
10032 H88 118.638 20.3157 25.0621 H 0 **** 0.41
10033 H89 119.781 22.8492 23.0042 H 0 **** 0.053
10034 H90 120.504 22.778 21.397 H 0 **** 0.053
10035 H91 121.456 22.2836 22.8242 H 0 **** 0.053
10036 H92 117.637 13.486 21.3452 H 0 **** 0.41
10037 H93 116.133 7.67666 21.4671 H 0 **** 0.053
10038 H94 114.573 5.73452 21.4355 H 0 **** 0.053
10039 H95 115.929 5.43759 20.3193 H 0 **** 0.053
10040 H96 114.325 5.92538 19.6865 H 0 **** 0.053
10041 H97 120.391 8.83178 13.516 H 0 **** 0.41
10042 H98 122.709 16.8239 12.3713 H 0 **** 0.41
10043 H99 116.077 5.71546 16.3825 H 0 **** 0.41
10044 H100 119.281 13.2653 14.5614 H 0 **** 0.053
10045 H101 120.782 16.7019 13.549 H 0 **** 0.053
10046 H102 114.563 8.16121 20.8243 H 0 **** 0.053
10047 C1 96.0297 15.4518 33.6877 C.ar 0 **** 0.042
10048 C2 96.2744 15.9095 32.4063 C.ar 0 **** -0.1268
10049 C3 97.508 15.7115 31.8084 C.ar 0 **** 0
10050 C4 98.5343 15.0476 32.4818 C.ar 0 **** 0
10051 C5 98.2723 14.577 33.772 C.ar 0 **** -0.1268
10052 C6 97.0447 14.7813 34.3841 C.ar 0 **** 0
10053 C7 99.6831 15.0125 31.5897 C.ar 0 **** 0
10054 C8 99.3184 15.6365 30.4096 C.ar 0 **** 0
10055 C9 97.9166 16.1414 30.4323 C.3 0 **** -0.106
10056 C10 100.228 15.7318 29.3625 C.ar 0 **** 0
10057 C11 101.527 15.1957 29.4865 C.ar 0 **** 0
10058 C12 101.849 14.5741 30.7242 C.ar 0 **** 0
10059 C13 100.938 14.4899 31.7829 C.ar 0 **** 0
10060 C14 101.327 13.8197 33.0704 C.3 0 **** -0.106
10061 C15 102.819 14.0023 33.3513 C.3 0 **** -0.106
10062 C16 103.578 13.3606 32.2218 C.3 0 **** -0.106
10063 C17 103.252 13.9935 30.8854 C.ar 0 **** 0
10064 C18 104.171 14.0181 29.8859 C.ar 0 **** 0
10065 C19 103.871 14.5835 28.6785 C.ar 0 **** 0
10066 C20 102.477 15.2745 28.4087 C.ar 0 **** 0
10067 C21 102.055 15.9901 27.2174 C.ar 0 **** 0
10068 C22 100.738 16.4596 27.1745 C.ar 0 **** 0
10069 C23 99.8477 16.3563 28.186 C.ar 0 **** 0.042
10070 C24 104.909 14.5591 27.5665 C.3 0 **** -0.106
10071 C25 106.161 13.6651 27.8034 C.ar 0 **** 0
10072 C26 106.422 13.1476 29.0484 C.ar 0 **** 0
10073 C27 105.517 13.377 30.2143 C.3 0 **** -0.106
10074 C28 107.57 12.3918 29.2733 C.ar 0 **** 0.042
10075 C29 108.494 12.144 28.2728 C.ar 0 **** 0
10076 C30 108.209 12.6647 27.0201 C.ar 0 **** 0
10077 C31 107.065 13.4185 26.7728 C.ar 0 **** 0
10078 C32 109.155 12.4504 25.8271 C.ar 0 **** 0
10079 C33 110.402 11.6241 26.1576 C.3 0 **** -0.106
10080 C34 110.858 11.8012 27.604 C.3 0 **** -0.106
10081 C35 109.737 11.3242 28.5245 C.3 0 **** -0.106
10082 C36 106.85 13.9399 25.3662 C.ar 0 **** -0.1268
10083 C37 107.766 13.6821 24.3953 C.ar 0 **** 0.0265
10084 C38 108.881 12.9678 24.6037 C.ar 0 **** -0.1268
10085 C39 100.31 17.1457 25.9304 C.3 0 **** -0.106
10086 C40 101.617 17.0768 25.209 C.ar 0 **** 0
10087 C41 102.612 16.4189 25.9347 C.ar 0 **** 0
10088 C42 103.879 16.3695 25.3169 C.ar 0 **** -0.1268
10089 C43 104.105 16.9087 24.0334 C.ar 0 **** 0
10090 C44 103.068 17.5491 23.3222 C.ar 0 **** 0
10091 C45 101.808 17.6373 23.9361 C.ar 0 **** 0
10092 C46 100.766 18.3031 23.2554 C.ar 0 **** -0.1268
10093 C47 100.936 18.8697 22.0014 C.ar 0 **** 0
10094 C48 102.185 18.7746 21.416 C.ar 0 **** -0.1268
10095 C49 103.262 18.1271 22.0441 C.ar 0 **** 0
10096 C50 104.535 18.0392 21.4548 C.ar 0 **** 0.042
10097 C51 105.57 17.4122 22.1215 C.ar 0 **** -0.1268
10098 C52 105.37 16.8643 23.3858 C.ar 0 **** -0.1268
10099 O53 94.8062 15.6438 34.2839 O.3 0 **** -0.452
10100 C54 96.7884 14.2551 35.7879 C.3 0 **** -0.159
10101 O55 98.6105 16.8614 28.0394 O.3 0 **** -0.452
10102 C56 99.7231 19.5638 21.391 C.3 0 **** -0.106
10103 C57 99.952 19.9996 19.9395 C.3 0 **** -0.159
10104 O58 107.537 14.1719 23.1658 O.3 0 **** -0.4365
10105 O59 107.856 11.856 30.4996 O.3 0 **** -0.452
10106 O60 104.849 18.5424 20.2447 O.3 0 **** -0.452
10107 H61 95.4924 16.4431 31.8187 H 0 **** 0.1268
10108 H62 99.0001 14.0166 34.3744 H 0 **** 0.1268
10109 H63 97.8418 17.2401 30.3399 H 0 **** 0.053
10110 H64 97.2626 15.6647 29.6791 H 0 **** 0.053
10111 H65 100.795 14.2404 33.919 H 0 **** 0.053
10112 H66 101.106 12.7303 33.0276 H 0 **** 0.053
10113 H67 103.066 15.0872 33.4529 H 0 **** 0.053
10114 H68 103.094 13.5276 34.3392 H 0 **** 0.053
10115 H69 104.649 13.4362 32.4438 H 0 **** 0.053
10116 H70 103.332 12.2843 32.1962 H 0 **** 0.053
10117 H71 104.413 14.2009 26.6402 H 0 **** 0.053
10118 H72 105.304 12.4052 30.6713 H 0 **** 0.053
10119 H73 110.177 10.5541 25.9712 H 0 **** 0.053
10120 H74 111.189 11.9128 25.4478 H 0 **** 0.053
10121 H75 111.771 11.2193 27.7827 H 0 **** 0.053
10122 H76 111.103 12.8545 27.8029 H 0 **** 0.053
10123 H77 109.514 10.2658 28.3324 H 0 **** 0.053
10124 H78 110.039 11.4069 29.5627 H 0 **** 0.053
10125 H79 105.955 14.4984 25.171 H 0 **** 0.1268
10126 H80 109.587 12.772 23.8121 H 0 **** 0.1268
10127 H81 99.5273 16.6004 25.3801 H 0 **** 0.053
10128 H82 100.007 18.1924 26.0919 H 0 **** 0.053
10129 H83 104.77 15.9526 25.7621 H 0 **** 0.1268
10130 H84 99.7694 18.381 23.7283 H 0 **** 0.1268
10131 H85 102.324 19.2223 20.4353 H 0 **** 0.1268
10132 H86 106.578 17.3369 21.6816 H 0 **** 0.1268
10133 H87 106.23 16.389 23.9368 H 0 **** 0.1268
10134 H88 94.252 16.1115 33.6739 H 0 **** 0.41
10135 H89 96.1067 14.9165 36.3353 H 0 **** 0.053
10136 H90 97.7134 14.1901 36.3775 H 0 **** 0.053
10137 H91 96.329 13.2545 35.7484 H 0 **** 0.053
10138 H92 98.5134 17.2563 27.184 H 0 **** 0.41
10139 H93 98.8614 18.8889 21.4192 H 0 **** 0.053
10140 H94 99.0512 20.4903 19.5207 H 0 **** 0.053
10141 H95 100.186 19.1379 19.2851 H 0 **** 0.053
10142 H96 100.78 20.7284 19.8568 H 0 **** 0.053
10143 H97 106.685 14.5743 23.1117 H 0 **** 0.41
10144 H98 107.182 12.0836 31.1195 H 0 **** 0.41
10145 H99 104.084 18.9593 19.8693 H 0 **** 0.41
10146 H100 105.291 15.5963 27.473 H 0 **** 0.053
10147 H101 106.022 14.0177 30.9462 H 0 **** 0.053
10148 H102 99.4653 20.4457 21.9885 H 0 **** 0.053
10149 C1 125.55 79.8156 68.5705 C.ar 0 **** 0.042
10150 C2 126.693 80.109 69.291 C.ar 0 **** -0.1268
10151 C3 127.159 79.2393 70.2631 C.ar 0 **** 0
10152 C4 126.49 78.0467 70.5402 C.ar 0 **** 0
10153 C5 125.345 77.7512 69.7941 C.ar 0 **** -0.1268
10154 C6 124.863 78.6215 68.8276 C.ar 0 **** 0
10155 C7 127.224 77.3769 71.6027 C.ar 0 **** 0
10156 C8 128.313 78.1678 71.9244 C.ar 0 **** 0
10157 C9 128.378 79.4185 71.117 C.3 0 **** -0.106
10158 C10 129.206 77.7565 72.908 C.ar 0 **** 0
10159 C11 129.017 76.5341 73.5862 C.ar 0 **** 0
10160 C12 127.877 75.7676 73.2199 C.ar 0 **** 0
10161 C13 126.971 76.1878 72.2397 C.ar 0 **** 0
10162 C14 125.783 75.3378 71.8879 C.3 0 **** -0.106
10163 C15 125.291 74.5566 73.1066 C.3 0 **** -0.106
10164 C16 126.412 73.6594 73.5557 C.3 0 **** -0.106
10165 C17 127.647 74.4436 73.9462 C.ar 0 **** 0
10166 C18 128.505 73.9675 74.8848 C.ar 0 **** 0
10167 C19 129.623 74.6747 75.2284 C.ar 0 **** 0
10168 C20 129.938 76.0873 74.5967 C.ar 0 **** 0
10169 C21 131.029 76.9861 74.9299 C.ar 0 **** 0
10170 C22 131.153 78.1618 74.1818 C.ar 0 **** 0
10171 C23 130.294 78.5571 73.2163 C.ar 0 **** 0.042
10172 C24 130.584 74.0943 76.2551 C.3 0 **** -0.106
10173 C25 130.354 72.6099 76.6634 C.ar 0 **** 0
10174 C26 129.196 71.9624 76.3086 C.ar 0 **** 0
10175 C27 128.129 72.6201 75.4952 C.3 0 **** -0.106
10176 C28 128.966 70.6509 76.7189 C.ar 0 **** 0.042
10177 C29 129.871 69.9567 77.5026 C.ar 0 **** 0
10178 C30 131.039 70.6226 77.8411 C.ar 0 **** 0
10179 C31 131.291 71.9312 77.4373 C.ar 0 **** 0
10180 C32 132.124 69.954 78.7007 C.ar 0 **** 0
10181 C33 131.791 68.5203 79.1255 C.3 0 **** -0.106
10182 C34 130.291 68.2895 79.2908 C.3 0 **** -0.106
10183 C35 129.615 68.5357 77.9439 C.3 0 **** -0.106
10184 C36 132.601 72.5639 77.8633 C.ar 0 **** -0.1268
10185 C37 133.48 71.8649 78.628 C.ar 0 **** 0.0265
10186 C38 133.263 70.6081 79.0404 C.ar 0 **** -0.1268
10187 C39 132.302 79.0441 74.5038 C.3 0 **** -0.106
10188 C40 132.856 78.2407 75.635 C.ar 0 **** 0
10189 C41 132.138 77.0683 75.8802 C.ar 0 **** 0
10190 C42 132.593 76.2975 76.9704 C.ar 0 **** -0.1268
10191 C43 133.724 76.6687 77.7267 C.ar 0 **** 0
10192 C44 134.435 77.852 77.4355 C.ar 0 **** 0
10193 C45 133.977 78.6491 76.3745 C.ar 0 **** 0
10194 C46 134.655 79.8538 76.0875 C.ar 0 **** -0.1268
10195 C47 135.76 80.2787 76.81 C.ar 0 **** 0
10196 C48 136.193 79.4808 77.8528 C.ar 0 **** -0.1268
10197 C49 135.559 78.2729 78.1883 C.ar 0 **** 0
10198 C50 135.991 77.4659 79.2555 C.ar 0 **** 0.042
10199 C51 135.321 76.2978 79.5614 C.ar 0 **** -0.1268
10200 C52 134.207 75.9047 78.8248 C.ar 0 **** -0.1268
10201 O53 125.083 80.679 67.6082 O.3 0 **** -0.452
10202 C54 123.616 78.2702 68.0295 C.3 0 **** -0.159
10203 O55 130.504 79.7187 72.5724 O.3 0 **** -0.452
10204 C56 136.386 81.6049 76.3918 C.3 0 **** -0.106
10205 C57 137.699 81.9035 77.1241 C.3 0 **** -0.159
10206 O58 134.624 72.4699 78.9868 O.3 0 **** -0.4365
10207 O59 127.827 69.9745 76.3766 O.3 0 **** -0.452
10208 O60 137.046 77.7506 80.044 O.3 0 **** -0.452
10209 H61 127.273 81.0433 69.1112 H 0 **** 0.1268
10210 H62 124.765 76.8257 69.9129 H 0 **** 0.1268
10211 H63 128.285 80.3385 71.722 H 0 **** 0.053
10212 H64 129.278 79.4873 70.4794 H 0 **** 0.053
10213 H65 124.946 75.9397 71.5445 H 0 **** 0.053
10214 H66 126.043 74.6133 71.0848 H 0 **** 0.053
10215 H67 124.971 75.2576 73.916 H 0 **** 0.053
10216 H68 124.375 73.9506 72.8412 H 0 **** 0.053
10217 H69 126.049 73.0522 74.394 H 0 **** 0.053
10218 H70 126.656 72.9596 72.737 H 0 **** 0.053
10219 H71 131.613 74.1726 75.8458 H 0 **** 0.053
10220 H72 127.88 71.9516 74.665 H 0 **** 0.053
10221 H73 132.189 67.8228 78.3602 H 0 **** 0.053
10222 H74 132.336 68.3147 80.0575 H 0 **** 0.053
10223 H75 130.105 67.2624 79.6282 H 0 **** 0.053
10224 H76 129.882 68.9608 80.0596 H 0 **** 0.053
10225 H77 130.015 67.8467 77.188 H 0 **** 0.053
10226 H78 128.549 68.3509 78.0161 H 0 **** 0.053
10227 H79 132.805 73.5632 77.5296 H 0 **** 0.1268
10228 H80 133.982 70.0742 79.6413 H 0 **** 0.1268
10229 H81 133.032 79.1246 73.6833 H 0 **** 0.053
10230 H82 131.999 80.0464 74.8469 H 0 **** 0.053
10231 H83 132.12 75.3965 77.3333 H 0 **** 0.1268
10232 H84 134.304 80.4913 75.2554 H 0 **** 0.1268
10233 H85 137.055 79.8129 78.4249 H 0 **** 0.1268
10234 H86 135.638 75.6528 80.3974 H 0 **** 0.1268
10235 H87 133.645 74.9699 79.1072 H 0 **** 0.1268
10236 H88 125.684 81.4088 67.5536 H 0 **** 0.41
10237 H89 123.05 79.1723 67.7699 H 0 **** 0.053
10238 H90 122.938 77.6175 68.5953 H 0 **** 0.053
10239 H91 123.887 77.7609 67.0907 H 0 **** 0.053
10240 H92 131.282 80.1435 72.9061 H 0 **** 0.41
10241 H93 136.584 81.5938 75.315 H 0 **** 0.053
10242 H94 138.134 82.8665 76.7915 H 0 **** 0.053
10243 H95 138.459 81.1219 76.9355 H 0 **** 0.053
10244 H96 137.549 81.9812 78.2172 H 0 **** 0.053
10245 H97 134.711 73.3121 78.5697 H 0 **** 0.41
10246 H98 127.265 70.5258 75.8564 H 0 **** 0.41
10247 H99 137.435 78.5697 79.7656 H 0 **** 0.41
10248 H100 130.447 74.688 77.1819 H 0 **** 0.053
10249 H101 127.24 72.7719 76.117 H 0 **** 0.053
10250 H102 135.68 82.421 76.5845 H 0 **** 0.053
10251 C1 114.009 71.2973 75.951 C.ar 0 **** 0.042
10252 C2 113.095 71.5833 74.9539 C.ar 0 **** -0.1268
10253 C3 113.497 72.2083 73.7847 C.ar 0 **** 0
10254 C4 114.831 72.5663 73.5826 C.ar 0 **** 0
10255 C5 115.749 72.2597 74.5907 C.ar 0 **** -0.1268
10256 C6 115.355 71.6452 75.7701 C.ar 0 **** 0
10257 C7 114.914 73.2003 72.2757 C.ar 0 **** 0
10258 C8 113.645 73.1948 71.7241 C.ar 0 **** 0
10259 C9 112.628 72.5747 72.6201 C.3 0 **** -0.106
10260 C10 113.434 73.7288 70.4576 C.ar 0 **** 0
10261 C11 114.503 74.2787 69.7207 C.ar 0 **** 0
10262 C12 115.783 74.2652 70.341 C.ar 0 **** 0
10263 C13 115.993 73.7398 71.6208 C.ar 0 **** 0
10264 C14 117.367 73.747 72.2294 C.3 0 **** -0.106
10265 C15 118.169 74.9584 71.7538 C.3 0 **** -0.106
10266 C16 118.302 74.8595 70.2589 C.3 0 **** -0.106
10267 C17 116.956 74.8632 69.566 C.ar 0 **** 0
10268 C18 116.822 75.3604 68.3095 C.ar 0 **** 0
10269 C19 115.607 75.3541 67.6844 C.ar 0 **** 0
10270 C20 114.305 74.8231 68.4041 C.ar 0 **** 0
10271 C21 112.942 74.8399 67.9026 C.ar 0 **** 0
10272 C22 111.953 74.2439 68.6918 C.ar 0 **** 0
10273 C23 112.158 73.713 69.9173 C.ar 0 **** 0.042
10274 C24 115.499 75.8827 66.2616 C.3 0 **** -0.106
10275 C25 116.838 76.1673 65.5216 C.ar 0 **** 0
10276 C26 118.025 76.1847 66.2125 C.ar 0 **** 0
10277 C27 118.101 75.9008 67.6771 C.3 0 **** -0.106
10278 C28 119.218 76.4911 65.5605 C.ar 0 **** 0.042
10279 C29 119.259 76.8024 64.2124 C.ar 0 **** 0
10280 C30 118.053 76.7686 63.5292 C.ar 0 **** 0
10281 C31 116.851 76.4595 64.1603 C.ar 0 **** 0
10282 C32 117.971 77.0872 62.0274 C.ar 0 **** 0
10283 C33 119.32 77.4304 61.3867 C.3 0 **** -0.106
10284 C34 120.282 78.1026 62.3643 C.3 0 **** -0.106
10285 C35 120.555 77.1345 63.5133 C.3 0 **** -0.106
10286 C36 115.591 76.4511 63.3183 C.ar 0 **** -0.1268
10287 C37 115.651 76.7538 61.9947 C.ar 0 **** 0.0265
10288 C38 116.791 77.0638 61.3604 C.ar 0 **** -0.1268
10289 C39 110.575 74.2279 68.1417 C.3 0 **** -0.106
10290 C40 110.858 74.975 66.8793 C.ar 0 **** 0
10291 C41 112.203 75.3233 66.7367 C.ar 0 **** 0
10292 C42 112.514 76.073 65.5832 C.ar 0 **** -0.1268
10293 C43 111.537 76.4033 64.6212 C.ar 0 **** 0
10294 C44 110.191 76.0157 64.7911 C.ar 0 **** 0
10295 C45 109.856 75.2977 65.9502 C.ar 0 **** 0
10296 C46 108.509 74.9289 66.1555 C.ar 0 **** -0.1268
10297 C47 107.503 75.2443 65.2544 C.ar 0 **** 0
10298 C48 107.854 75.9546 64.1211 C.ar 0 **** -0.1268
10299 C49 109.176 76.3518 63.8623 C.ar 0 **** 0
10300 C50 109.533 77.0837 62.7156 C.ar 0 **** 0.042
10301 C51 110.843 77.4715 62.5161 C.ar 0 **** -0.1268
10302 C52 111.828 77.1506 63.4464 C.ar 0 **** -0.1268
10303 O53 113.615 70.6771 77.1127 O.3 0 **** -0.452
10304 C54 116.379 71.3217 76.8471 C.3 0 **** -0.159
10305 O55 111.126 73.1814 70.5949 O.3 0 **** -0.452
10306 C56 106.093 74.788 65.6115 C.3 0 **** -0.106
10307 C57 105.085 75.0213 64.4806 C.3 0 **** -0.159
10308 O58 114.507 76.7413 61.2914 O.3 0 **** -0.4365
10309 O59 120.418 76.5083 66.2166 O.3 0 **** -0.452
10310 O60 108.665 77.4613 61.7558 O.3 0 **** -0.452
10311 H61 112.018 71.3175 75.0578 H 0 **** 0.1268
10312 H62 116.825 72.4708 74.5175 H 0 **** 0.1268
10313 H63 111.837 73.2763 72.9425 H 0 **** 0.053
10314 H64 112.162 71.6657 72.1978 H 0 **** 0.053
10315 H65 117.326 73.806 73.3135 H 0 **** 0.053
10316 H66 117.923 72.8239 71.9529 H 0 **** 0.053
10317 H67 117.661 75.9038 72.064 H 0 **** 0.053
10318 H68 119.185 74.9704 72.247 H 0 **** 0.053
10319 H69 118.926 75.6931 69.9137 H 0 **** 0.053
10320 H70 118.847 73.9308 70.0127 H 0 **** 0.053
10321 H71 114.936 75.1387 65.6596 H 0 **** 0.053
10322 H72 118.878 75.1456 67.8324 H 0 **** 0.053
10323 H73 119.778 76.4958 61.004 H 0 **** 0.053
10324 H74 119.121 78.0681 60.5142 H 0 **** 0.053
10325 H75 121.217 78.3596 61.8523 H 0 **** 0.053
10326 H76 119.851 79.0416 62.7412 H 0 **** 0.053
10327 H77 121.004 76.2084 63.1289 H 0 **** 0.053
10328 H78 121.26 77.568 64.2138 H 0 **** 0.053
10329 H79 114.669 76.1871 63.8006 H 0 **** 0.1268
10330 H80 116.811 77.2926 60.3064 H 0 **** 0.1268
10331 H81 110.205 73.2134 67.9243 H 0 **** 0.053
10332 H82 109.85 74.7744 68.7658 H 0 **** 0.053
10333 H83 113.49 76.4733 65.3484 H 0 **** 0.1268
10334 H84 108.232 74.3648 67.0649 H 0 **** 0.1268
10335 H85 107.068 76.2084 63.4149 H 0 **** 0.1268
10336 H86 111.144 78.051 61.628 H 0 **** 0.1268
10337 H87 112.886 77.5048 63.293 H 0 **** 0.1268
10338 H88 112.683 70.511 77.0561 H 0 **** 0.41
10339 H89 115.934 71.3966 77.8457 H 0 **** 0.053
10340 H90 117.232 72.0144 76.8242 H 0 **** 0.053
10341 H91 116.761 70.2954 76.7232 H 0 **** 0.053
10342 H92 110.327 73.2527 70.0913 H 0 **** 0.41
10343 H93 106.103 73.7201 65.8529 H 0 **** 0.053
10344 H94 104.074 74.6704 64.7654 H 0 **** 0.053
10345 H95 105.37 74.4769 63.5597 H 0 **** 0.053
10346 H96 104.992 76.0947 64.2306 H 0 **** 0.053
10347 H97 113.789 76.4205 61.8141 H 0 **** 0.41
10348 H98 120.295 76.3039 67.129 H 0 **** 0.41
10349 H99 107.795 77.1602 61.9828 H 0 **** 0.41
10350 H100 114.977 76.8592 66.3302 H 0 **** 0.053
10351 H101 118.376 76.8179 68.211 H 0 **** 0.053
10352 H102 105.75 75.3205 66.506 H 0 **** 0.053
10353 C1 125.222 38.9779 83.4472 C.ar 0 **** 0.042
10354 C2 126.132 37.9413 83.5341 C.ar 0 **** -0.1268
10355 C3 126.422 37.1599 82.4277 C.ar 0 **** 0
10356 C4 125.803 37.3968 81.1994 C.ar 0 **** 0
10357 C5 124.894 38.4561 81.1186 C.ar 0 **** -0.1268
10358 C6 124.588 39.2361 82.2238 C.ar 0 **** 0
10359 C7 126.316 36.4105 80.2609 C.ar 0 **** 0
10360 C8 127.231 35.6227 80.9372 C.ar 0 **** 0
10361 C9 127.385 36.0134 82.367 C.3 0 **** -0.106
10362 C10 127.895 34.5988 80.2705 C.ar 0 **** 0
10363 C11 127.65 34.352 78.9034 C.ar 0 **** 0
10364 C12 126.694 35.187 78.263 C.ar 0 **** 0
10365 C13 126.015 36.2082 78.9372 C.ar 0 **** 0
10366 C14 125.015 37.0643 78.2125 C.3 0 **** -0.106
10367 C15 124.312 36.2697 77.1114 C.3 0 **** -0.106
10368 C16 125.362 35.8182 76.1336 C.3 0 **** -0.106
10369 C17 126.404 34.9325 76.7848 C.ar 0 **** 0
10370 C18 127.049 33.9766 76.0686 C.ar 0 **** 0
10371 C19 127.994 33.1846 76.6585 C.ar 0 **** 0
10372 C20 128.338 33.3057 78.1953 C.ar 0 **** 0
10373 C21 129.243 32.4775 78.9717 C.ar 0 **** 0
10374 C22 129.446 32.8186 80.3134 C.ar 0 **** 0
10375 C23 128.81 33.8198 80.9605 C.ar 0 **** 0.042
10376 C24 128.728 32.1496 75.818 C.3 0 **** -0.106
10377 C25 128.525 32.2342 74.2769 C.ar 0 **** 0
10378 C26 127.54 33.0304 73.7472 C.ar 0 **** 0
10379 C27 126.648 33.8722 74.5999 C.3 0 **** -0.106
10380 C28 127.324 33.066 72.3712 C.ar 0 **** 0.042
10381 C29 128.07 32.302 71.4906 C.ar 0 **** 0
10382 C30 129.067 31.5129 72.0423 C.ar 0 **** 0
10383 C31 129.303 31.4666 73.414 C.ar 0 **** 0
10384 C32 129.967 30.6266 71.1658 C.ar 0 **** 0
10385 C33 129.659 30.7129 69.6684 C.3 0 **** -0.106
10386 C34 128.185 30.9941 69.3867 C.3 0 **** -0.106
10387 C35 127.829 32.3463 70.0005 C.3 0 **** -0.106
10388 C36 130.42 30.5706 73.91 C.ar 0 **** -0.1268
10389 C37 131.145 29.8316 73.0297 C.ar 0 **** 0.0265
10390 C38 130.937 29.8474 71.7057 C.ar 0 **** -0.1268
10391 C39 130.412 31.9909 81.0777 C.3 0 **** -0.106
10392 C40 130.744 31.0227 79.9896 C.ar 0 **** 0
10393 C41 130.085 31.2954 78.7895 C.ar 0 **** 0
10394 C42 130.328 30.3804 77.744 C.ar 0 **** -0.1268
10395 C43 131.215 29.2938 77.8941 C.ar 0 **** 0
10396 C44 131.879 29.0628 79.1176 C.ar 0 **** 0
10397 C45 131.623 29.9444 80.1799 C.ar 0 **** 0
10398 C46 132.249 29.7111 81.4232 C.ar 0 **** -0.1268
10399 C47 133.11 28.6457 81.6366 C.ar 0 **** 0
10400 C48 133.35 27.7899 80.577 C.ar 0 **** -0.1268
10401 C49 132.755 27.9682 79.3166 C.ar 0 **** 0
10402 C50 132.985 27.0902 78.2422 C.ar 0 **** 0.042
10403 C51 132.356 27.2929 77.0295 C.ar 0 **** -0.1268
10404 C52 131.483 28.3626 76.853 C.ar 0 **** -0.1268
10405 O53 124.933 39.7568 84.5421 O.3 0 **** -0.452
10406 C54 123.597 40.3838 82.1043 C.3 0 **** -0.159
10407 O55 129.068 34.0429 82.2609 O.3 0 **** -0.452
10408 C56 133.7 28.5137 83.0367 C.3 0 **** -0.106
10409 C57 134.757 27.4151 83.1258 C.3 0 **** -0.159
10410 O58 132.121 29.0474 73.5173 O.3 0 **** -0.4365
10411 O59 126.356 33.854 71.8103 O.3 0 **** -0.452
10412 O60 133.796 26.0154 78.3001 O.3 0 **** -0.452
10413 H61 126.66 37.7081 84.4872 H 0 **** 0.1268
10414 H62 124.378 38.7452 80.1932 H 0 **** 0.1268
10415 H63 127.079 35.2229 83.0758 H 0 **** 0.053
10416 H64 128.402 36.362 82.6231 H 0 **** 0.053
10417 H65 124.238 37.4275 78.8798 H 0 **** 0.053
10418 H66 125.514 37.9439 77.7495 H 0 **** 0.053
10419 H67 123.755 35.4056 77.549 H 0 **** 0.053
10420 H68 123.536 36.9111 76.5979 H 0 **** 0.053
10421 H69 124.86 35.2964 75.3095 H 0 **** 0.053
10422 H70 125.848 36.7093 75.6982 H 0 **** 0.053
10423 H71 129.815 32.2517 76.0185 H 0 **** 0.053
10424 H72 126.656 34.8886 74.1935 H 0 **** 0.053
10425 H73 130.279 31.5168 69.2237 H 0 **** 0.053
10426 H74 129.984 29.7716 69.2076 H 0 **** 0.053
10427 H75 128.006 31.0081 68.3046 H 0 **** 0.053
10428 H76 127.553 30.1989 69.8085 H 0 **** 0.053
10429 H77 128.451 33.1372 69.5595 H 0 **** 0.053
10430 H78 126.795 32.5962 69.7933 H 0 **** 0.053
10431 H79 130.619 30.5569 74.9645 H 0 **** 0.1268
10432 H80 131.534 29.2568 71.0287 H 0 **** 0.1268
10433 H81 131.307 32.5486 81.3951 H 0 **** 0.053
10434 H82 129.958 31.4733 81.9378 H 0 **** 0.053
10435 H83 129.857 30.4088 76.7723 H 0 **** 0.1268
10436 H84 132.057 30.3976 82.2681 H 0 **** 0.1268
10437 H85 134.023 26.9529 80.7395 H 0 **** 0.1268
10438 H86 132.517 26.6153 76.1743 H 0 **** 0.1268
10439 H87 130.947 28.4975 75.8709 H 0 **** 0.1268
10440 H88 125.449 39.4432 85.272 H 0 **** 0.41
10441 H89 123.039 40.5176 83.0382 H 0 **** 0.053
10442 H90 122.857 40.2068 81.3116 H 0 **** 0.053
10443 H91 124.122 41.3276 81.8866 H 0 **** 0.053
10444 H92 129.723 33.4348 82.5754 H 0 **** 0.41
10445 H93 134.163 29.4638 83.3289 H 0 **** 0.053
10446 H94 135.205 27.3632 84.1359 H 0 **** 0.053
10447 H95 135.568 27.6136 82.4101 H 0 **** 0.053
10448 H96 134.348 26.4167 82.8963 H 0 **** 0.053
10449 H97 132.239 29.1859 74.4433 H 0 **** 0.41
10450 H98 125.891 34.3265 72.4818 H 0 **** 0.41
10451 H99 134.169 25.9548 79.1698 H 0 **** 0.41
10452 H100 128.328 31.1605 76.1216 H 0 **** 0.053
10453 H101 125.627 33.4751 74.5602 H 0 **** 0.053
10454 H102 132.903 28.3009 83.7581 H 0 **** 0.053
10455 C1 133.847 27.3626 50.6564 C.ar 0 **** 0.042
10456 C2 133.082 26.4082 51.3005 C.ar 0 **** -0.1268
10457 C3 133.135 25.0795 50.9125 C.ar 0 **** 0
10458 C4 133.959 24.6701 49.8633 C.ar 0 **** 0
10459 C5 134.739 25.6408 49.2275 C.ar 0 **** -0.1268
10460 C6 134.683 26.9755 49.6004 C.ar 0 **** 0
10461 C7 133.779 23.2348 49.7086 C.ar 0 **** 0
10462 C8 132.872 22.8189 50.6673 C.ar 0 **** 0
10463 C9 132.374 23.9383 51.5156 C.3 0 **** -0.106
10464 C10 132.523 21.4759 50.7598 C.ar 0 **** 0
10465 C11 133.087 20.5239 49.8849 C.ar 0 **** 0
10466 C12 134.006 21.01 48.915 C.ar 0 **** 0
10467 C13 134.347 22.3634 48.8128 C.ar 0 **** 0
10468 C14 135.326 22.8251 47.7702 C.3 0 **** -0.106
10469 C15 135.236 21.9571 46.5149 C.3 0 **** -0.106
10470 C16 135.578 20.5463 46.9103 C.3 0 **** -0.106
10471 C17 134.623 19.999 47.9502 C.ar 0 **** 0
10472 C18 134.356 18.6695 48.017 C.ar 0 **** 0
10473 C19 133.499 18.1788 48.9619 C.ar 0 **** 0
10474 C20 132.747 19.129 49.9749 C.ar 0 **** 0
10475 C21 131.747 18.7629 50.9629 C.ar 0 **** 0
10476 C22 131.268 19.771 51.8062 C.ar 0 **** 0
10477 C23 131.616 21.0743 51.7266 C.ar 0 **** 0.042
10478 C24 133.251 16.6792 49.0346 C.3 0 **** -0.106
10479 C25 134.19 15.7766 48.1819 C.ar 0 **** 0
10480 C26 135.009 16.3292 47.2285 C.ar 0 **** 0
10481 C27 135.073 17.802 46.9865 C.3 0 **** -0.106
10482 C28 135.809 15.5169 46.4271 C.ar 0 **** 0.042
10483 C29 135.806 14.1377 46.5449 C.ar 0 **** 0
10484 C30 134.982 13.5988 47.5206 C.ar 0 **** 0
10485 C31 134.177 14.3926 48.3336 C.ar 0 **** 0
10486 C32 134.896 12.0811 47.7503 C.ar 0 **** 0
10487 C33 135.793 11.2556 46.8212 C.3 0 **** -0.106
10488 C34 135.993 11.9155 45.4587 C.3 0 **** -0.106
10489 C35 136.677 13.264 45.6733 C.3 0 **** -0.106
10490 C36 133.313 13.6994 49.3675 C.ar 0 **** -0.1268
10491 C37 133.326 12.3444 49.4713 C.ar 0 **** 0.0265
10492 C38 134.082 11.5526 48.6971 C.ar 0 **** -0.1268
10493 C39 130.284 19.3688 52.8408 C.3 0 **** -0.106
10494 C40 130.181 17.9265 52.4645 C.ar 0 **** 0
10495 C41 131.012 17.5757 51.399 C.ar 0 **** 0
10496 C42 130.917 16.2345 50.973 C.ar 0 **** -0.1268
10497 C43 130.071 15.306 51.6156 C.ar 0 **** 0
10498 C44 129.26 15.6941 52.7032 C.ar 0 **** 0
10499 C45 129.318 17.0338 53.1193 C.ar 0 **** 0
10500 C46 128.489 17.4505 54.1844 C.ar 0 **** -0.1268
10501 C47 127.625 16.5868 54.839 C.ar 0 **** 0
10502 C48 127.581 15.2725 54.4117 C.ar 0 **** -0.1268
10503 C49 128.379 14.7988 53.3566 C.ar 0 **** 0
10504 C50 128.329 13.465 52.9142 C.ar 0 **** 0.042
10505 C51 129.115 13.0519 51.8566 C.ar 0 **** -0.1268
10506 C52 129.963 13.9469 51.2106 C.ar 0 **** -0.1268
10507 O53 133.798 28.6818 51.0393 O.3 0 **** -0.452
10508 C54 135.546 28.0084 48.8918 C.3 0 **** -0.159
10509 O55 131.077 21.9615 52.5804 O.3 0 **** -0.452
10510 C56 126.785 17.179 55.9656 C.3 0 **** -0.106
10511 C57 125.997 16.1193 56.7439 C.3 0 **** -0.159
10512 O58 132.539 11.775 50.3991 O.3 0 **** -0.4365
10513 O59 136.637 16.0352 45.4694 O.3 0 **** -0.452
10514 O60 127.54 12.5149 53.4537 O.3 0 **** -0.452
10515 H61 132.408 26.6751 52.1471 H 0 **** 0.1268
10516 H62 135.442 25.4188 48.4131 H 0 **** 0.1268
10517 H63 131.287 24.1147 51.4206 H 0 **** 0.053
10518 H64 132.636 23.8339 52.5844 H 0 **** 0.053
10519 H65 135.128 23.8468 47.4584 H 0 **** 0.053
10520 H66 136.366 22.7757 48.1605 H 0 **** 0.053
10521 H67 134.215 22.0255 46.0654 H 0 **** 0.053
10522 H68 135.949 22.3353 45.7239 H 0 **** 0.053
10523 H69 135.573 19.9269 46.005 H 0 **** 0.053
10524 H70 136.61 20.5284 47.3031 H 0 **** 0.053
10525 H71 133.356 16.3645 50.0941 H 0 **** 0.053
10526 H72 136.127 18.0986 46.9977 H 0 **** 0.053
10527 H73 136.778 11.1177 47.3116 H 0 **** 0.053
10528 H74 135.34 10.2593 46.7232 H 0 **** 0.053
10529 H75 136.61 11.2741 44.8174 H 0 **** 0.053
10530 H76 135.027 12.0468 44.9496 H 0 **** 0.053
10531 H77 137.65 13.1231 46.164 H 0 **** 0.053
10532 H78 136.863 13.7496 44.7216 H 0 **** 0.053
10533 H79 132.712 14.3147 50.0097 H 0 **** 0.1268
10534 H80 134.076 10.4794 48.8046 H 0 **** 0.1268
10535 H81 130.663 19.4821 53.8687 H 0 **** 0.053
10536 H82 129.31 19.8722 52.7342 H 0 **** 0.053
10537 H83 131.442 15.8134 50.1283 H 0 **** 0.1268
10538 H84 128.524 18.5037 54.5194 H 0 **** 0.1268
10539 H85 126.901 14.5933 54.9184 H 0 **** 0.1268
10540 H86 129.086 12.0137 51.4868 H 0 **** 0.1268
10541 H87 130.571 13.6094 50.3242 H 0 **** 0.1268
10542 H88 133.188 28.7562 51.7606 H 0 **** 0.41
10543 H89 135.038 28.979 48.8482 H 0 **** 0.053
10544 H90 135.769 27.7168 47.856 H 0 **** 0.053
10545 H91 136.499 28.1494 49.4268 H 0 **** 0.053
10546 H92 130.476 21.5313 53.1723 H 0 **** 0.41
10547 H93 127.436 17.7125 56.6663 H 0 **** 0.053
10548 H94 125.407 16.5779 57.5614 H 0 **** 0.053
10549 H95 126.667 15.3703 57.2086 H 0 **** 0.053
10550 H96 125.28 15.5832 56.0944 H 0 **** 0.053
10551 H97 132.119 12.4284 50.9347 H 0 **** 0.41
10552 H98 136.577 16.9767 45.4605 H 0 **** 0.41
10553 H99 127.026 12.8926 54.1559 H 0 **** 0.41
10554 H100 132.228 16.5126 48.6386 H 0 **** 0.053
10555 H101 134.645 18.028 46.0032 H 0 **** 0.053
10556 H102 126.082 17.9116 55.5537 H 0 **** 0.053
10557 C1 141.625 32.1215 95.9502 C.ar 0 **** 0.042
10558 C2 141.323 31.3211 94.8642 C.ar 0 **** -0.1268
10559 C3 141.035 31.882 93.6308 C.ar 0 **** 0
10560 C4 141.041 33.2662 93.4521 C.ar 0 **** 0
10561 C5 141.36 34.0662 94.5532 C.ar 0 **** -0.1268
10562 C6 141.637 33.5147 95.7951 C.ar 0 **** 0
10563 C7 140.696 33.523 92.0621 C.ar 0 **** 0
10564 C8 140.508 32.2999 91.4426 C.ar 0 **** 0
10565 C9 140.698 31.1481 92.3687 C.3 0 **** -0.106
10566 C10 140.183 32.2466 90.0917 C.ar 0 **** 0
10567 C11 140.042 33.4304 89.3376 C.ar 0 **** 0
10568 C12 140.238 34.6574 90.0286 C.ar 0 **** 0
10569 C13 140.552 34.7118 91.3912 C.ar 0 **** 0
10570 C14 140.751 36.036 92.0736 C.3 0 **** -0.106
10571 C15 139.868 37.1132 91.4434 C.3 0 **** -0.106
10572 C16 140.271 37.2464 89.9999 C.3 0 **** -0.106
10573 C17 140.083 35.9534 89.2349 C.ar 0 **** 0
10574 C18 139.808 35.9661 87.9052 C.ar 0 **** 0
10575 C19 139.647 34.7967 87.2169 C.ar 0 **** 0
10576 C20 139.719 33.3929 87.9366 C.ar 0 **** 0
10577 C21 139.478 32.0835 87.3568 C.ar 0 **** 0
10578 C22 139.672 30.9655 88.1752 C.ar 0 **** 0
10579 C23 140.001 31.0147 89.4848 C.ar 0 **** 0.042
10580 C24 139.379 34.8451 85.7198 C.3 0 **** -0.106
10581 C25 139.555 36.2274 85.0259 C.ar 0 **** 0
10582 C26 139.686 37.3705 85.7752 C.ar 0 **** 0
10583 C27 139.705 37.3493 87.2687 C.3 0 **** -0.106
10584 C28 139.79 38.6138 85.1551 C.ar 0 **** 0.042
10585 C29 139.752 38.7534 83.7784 C.ar 0 **** 0
10586 C30 139.63 37.5875 83.0383 C.ar 0 **** 0
10587 C31 139.53 36.3347 83.638 C.ar 0 **** 0
10588 C32 139.584 37.6128 81.5019 C.ar 0 **** 0
10589 C33 139.688 39.016 80.8959 C.3 0 **** -0.106
10590 C34 139.089 40.0923 81.7985 C.3 0 **** -0.106
10591 C35 139.864 40.1044 83.1136 C.3 0 **** -0.106
10592 C36 139.401 35.1253 82.7342 C.ar 0 **** -0.1268
10593 C37 139.371 35.2813 81.3844 C.ar 0 **** 0.0265
10594 C38 139.456 36.4735 80.7775 C.ar 0 **** -0.1268
10595 C39 139.468 29.6345 87.5523 C.3 0 **** -0.106
10596 C40 139.053 30.1129 86.1992 C.ar 0 **** 0
10597 C41 139.06 31.504 86.0808 C.ar 0 **** 0
10598 C42 138.628 32.0077 84.8359 C.ar 0 **** -0.1268
10599 C43 138.265 31.1564 83.7721 C.ar 0 **** 0
10600 C44 138.298 29.7541 83.9225 C.ar 0 **** 0
10601 C45 138.685 29.2348 85.1682 C.ar 0 **** 0
10602 C46 138.686 27.8347 85.3531 C.ar 0 **** -0.1268
10603 C47 138.331 26.9502 84.3475 C.ar 0 **** 0
10604 C48 137.973 27.4817 83.1232 C.ar 0 **** -0.1268
10605 C49 137.931 28.8663 82.8827 C.ar 0 **** 0
10606 C50 137.513 29.4095 81.6532 C.ar 0 **** 0.042
10607 C51 137.472 30.7774 81.4739 C.ar 0 **** -0.1268
10608 C52 137.834 31.639 82.5052 C.ar 0 **** -0.1268
10609 O53 141.913 31.5709 97.1759 O.3 0 **** -0.452
10610 C54 141.984 34.4109 96.974 C.3 0 **** -0.159
10611 O55 140.145 29.8727 90.1793 O.3 0 **** -0.452
10612 C56 138.362 25.4652 84.6906 C.3 0 **** -0.106
10613 C57 138.111 24.5648 83.4757 C.3 0 **** -0.159
10614 O58 139.248 34.1806 80.6245 O.3 0 **** -0.4365
10615 O59 139.929 39.7711 85.8716 O.3 0 **** -0.452
10616 O60 137.126 28.6762 80.5902 O.3 0 **** -0.452
10617 H61 141.305 30.2103 94.9467 H 0 **** 0.1268
10618 H62 141.421 35.1622 94.5114 H 0 **** 0.1268
10619 H63 139.784 30.5434 92.5138 H 0 **** 0.053
10620 H64 141.536 30.4851 92.0837 H 0 **** 0.053
10621 H65 140.485 35.9896 93.1257 H 0 **** 0.053
10622 H66 141.812 36.3603 91.9978 H 0 **** 0.053
10623 H67 138.789 36.8439 91.5492 H 0 **** 0.053
10624 H68 139.997 38.0952 91.9874 H 0 **** 0.053
10625 H69 139.682 38.0576 89.5544 H 0 **** 0.053
10626 H70 141.329 37.5582 89.9546 H 0 **** 0.053
10627 H71 140.07 34.1315 85.2234 H 0 **** 0.053
10628 H72 140.578 37.9201 87.6019 H 0 **** 0.053
10629 H73 140.757 39.2443 80.7117 H 0 **** 0.053
10630 H74 139.194 38.9918 79.9147 H 0 **** 0.053
10631 H75 139.155 41.0715 81.3083 H 0 **** 0.053
10632 H76 138.022 39.8927 81.9776 H 0 **** 0.053
10633 H77 140.924 40.3251 82.9257 H 0 **** 0.053
10634 H78 139.485 40.8798 83.7697 H 0 **** 0.053
10635 H79 139.35 34.1587 83.1971 H 0 **** 0.1268
10636 H80 139.436 36.5679 79.703 H 0 **** 0.1268
10637 H81 140.391 29.0364 87.4929 H 0 **** 0.053
10638 H82 138.663 29.05 88.0252 H 0 **** 0.053
10639 H83 138.516 33.0545 84.5952 H 0 **** 0.1268
10640 H84 138.988 27.4141 86.3294 H 0 **** 0.1268
10641 H85 137.679 26.79 82.3373 H 0 **** 0.1268
10642 H86 137.149 31.2242 80.5191 H 0 **** 0.1268
10643 H87 137.769 32.7539 82.3577 H 0 **** 0.1268
10644 H88 141.853 30.6283 97.1014 H 0 **** 0.41
10645 H89 141.625 33.9773 97.9145 H 0 **** 0.053
10646 H90 141.525 35.4051 96.8836 H 0 **** 0.053
10647 H91 143.075 34.5373 97.0559 H 0 **** 0.053
10648 H92 139.981 29.1239 89.6231 H 0 **** 0.41
10649 H93 139.338 25.2105 85.1162 H 0 **** 0.053
10650 H94 138.158 23.4933 83.7541 H 0 **** 0.053
10651 H95 138.868 24.7263 82.6836 H 0 **** 0.053
10652 H96 137.111 24.7372 83.0371 H 0 **** 0.053
10653 H97 139.287 33.3972 81.1491 H 0 **** 0.41
10654 H98 139.934 39.5842 86.7964 H 0 **** 0.41
10655 H99 137.186 27.7555 80.8077 H 0 **** 0.41
10656 H100 138.312 34.5722 85.5845 H 0 **** 0.053
10657 H101 138.795 37.8258 87.6505 H 0 **** 0.053
10658 H102 137.607 25.2465 85.4537 H 0 **** 0.053
10659 C1 157.875 36.8898 22.962 C.ar 0 **** 0.042
10660 C2 158.368 36.081 21.9551 C.ar 0 **** -0.1268
10661 C3 159.665 35.5986 22.0071 C.ar 0 **** 0
10662 C4 160.507 35.9159 23.0739 C.ar 0 **** 0
10663 C5 159.994 36.723 24.0939 C.ar 0 **** -0.1268
10664 C6 158.701 37.2212 24.0447 C.ar 0 **** 0
10665 C7 161.784 35.2645 22.8237 C.ar 0 **** 0
10666 C8 161.674 34.5677 21.6331 C.ar 0 **** 0
10667 C9 160.333 34.7126 21.0002 C.3 0 **** -0.106
10668 C10 162.753 33.8315 21.1558 C.ar 0 **** 0
10669 C11 163.966 33.7827 21.8746 C.ar 0 **** 0
10670 C12 164.023 34.5248 23.086 C.ar 0 **** 0
10671 C13 162.942 35.2768 23.5596 C.ar 0 **** 0
10672 C14 163.054 36.0418 24.8483 C.3 0 **** -0.106
10673 C15 164.487 36.5273 25.0721 C.3 0 **** -0.106
10674 C16 165.373 35.3138 25.15 C.3 0 **** -0.106
10675 C17 165.33 34.4947 23.8774 C.ar 0 **** 0
10676 C18 166.403 33.7618 23.4855 C.ar 0 **** 0
10677 C19 166.357 33.0177 22.3402 C.ar 0 **** 0
10678 C20 165.088 33.016 21.4015 C.ar 0 **** 0
10679 C21 164.931 32.3527 20.1191 C.ar 0 **** 0
10680 C22 163.681 32.4318 19.4956 C.ar 0 **** 0
10681 C23 162.628 33.1368 19.9638 C.ar 0 **** 0.042
10682 C24 167.563 32.1758 21.9505 C.3 0 **** -0.106
10683 C25 168.683 32.0266 23.0218 C.ar 0 **** 0
10684 C26 168.687 32.8237 24.1399 C.ar 0 **** 0
10685 C27 167.619 33.8334 24.4055 C.3 0 **** -0.106
10686 C28 169.717 32.7271 25.0726 C.ar 0 **** 0.042
10687 C29 170.774 31.8484 24.9108 C.ar 0 **** 0
10688 C30 170.747 31.0439 23.7822 C.ar 0 **** 0
10689 C31 169.725 31.121 22.8403 C.ar 0 **** 0
10690 C32 171.861 30.0231 23.4966 C.ar 0 **** 0
10691 C33 172.965 29.9879 24.5585 C.3 0 **** -0.106
10692 C34 173.183 31.3444 25.2254 C.3 0 **** -0.106
10693 C35 171.888 31.7498 25.9261 C.3 0 **** -0.106
10694 C36 169.793 30.195 21.6429 C.ar 0 **** -0.1268
10695 C37 170.837 29.3355 21.503 C.ar 0 **** 0.0265
10696 C38 171.84 29.243 22.3874 C.ar 0 **** -0.1268
10697 C39 163.526 31.7079 18.21 C.3 0 **** -0.106
10698 C40 164.926 31.1989 18.1006 C.ar 0 **** 0
10699 C41 165.729 31.5605 19.1841 C.ar 0 **** 0
10700 C42 167.075 31.1447 19.1056 C.ar 0 **** -0.1268
10701 C43 167.556 30.3749 18.0261 C.ar 0 **** 0
10702 C44 166.708 30.013 16.9579 C.ar 0 **** 0
10703 C45 165.374 30.447 17.0027 C.ar 0 **** 0
10704 C46 164.517 30.1226 15.9283 C.ar 0 **** -0.1268
10705 C47 164.941 29.3875 14.8318 C.ar 0 **** 0
10706 C48 166.259 28.9725 14.8057 C.ar 0 **** -0.1268
10707 C49 167.16 29.2662 15.843 C.ar 0 **** 0
10708 C50 168.504 28.8545 15.8126 C.ar 0 **** 0.042
10709 C51 169.358 29.185 16.8468 C.ar 0 **** -0.1268
10710 C52 168.904 29.9335 17.9295 C.ar 0 **** -0.1268
10711 O53 156.588 37.3697 22.9152 O.3 0 **** -0.452
10712 C54 158.17 38.0945 25.1711 C.3 0 **** -0.159
10713 O55 161.478 33.1581 19.2682 O.3 0 **** -0.452
10714 C56 163.907 29.1201 13.743 C.3 0 **** -0.106
10715 C57 164.412 28.1556 12.6639 C.3 0 **** -0.159
10716 O58 170.86 28.5422 20.4194 O.3 0 **** -0.4365
10717 O59 169.748 33.5007 26.2008 O.3 0 **** -0.452
10718 O60 169.057 28.1391 14.8136 O.3 0 **** -0.452
10719 H61 157.741 35.791 21.0809 H 0 **** 0.1268
10720 H62 160.563 37.0045 24.9908 H 0 **** 0.1268
10721 H63 160.362 35.212 20.0148 H 0 **** 0.053
10722 H64 159.78 33.7591 20.9121 H 0 **** 0.053
10723 H65 162.422 36.9245 24.8481 H 0 **** 0.053
10724 H66 162.759 35.4033 25.7101 H 0 **** 0.053
10725 H67 164.799 37.216 24.2494 H 0 **** 0.053
10726 H68 164.552 37.1325 26.0243 H 0 **** 0.053
10727 H69 166.394 35.6496 25.3689 H 0 **** 0.053
10728 H70 165.051 34.6942 26.0056 H 0 **** 0.053
10729 H71 167.204 31.1558 21.6987 H 0 **** 0.053
10730 H72 167.256 33.6778 25.4267 H 0 **** 0.053
10731 H73 172.691 29.2388 25.3294 H 0 **** 0.053
10732 H74 173.881 29.6254 24.0732 H 0 **** 0.053
10733 H75 174.003 31.2775 25.9506 H 0 **** 0.053
10734 H76 173.473 32.097 24.4783 H 0 **** 0.053
10735 H77 171.618 31.0021 26.6843 H 0 **** 0.053
10736 H78 172.015 32.6969 26.4383 H 0 **** 0.053
10737 H79 168.991 30.2364 20.9323 H 0 **** 0.1268
10738 H80 172.652 28.5453 22.2563 H 0 **** 0.1268
10739 H81 162.807 30.875 18.2639 H 0 **** 0.053
10740 H82 163.282 32.3695 17.3634 H 0 **** 0.053
10741 H83 167.842 31.3862 19.8261 H 0 **** 0.1268
10742 H84 163.464 30.4589 15.9506 H 0 **** 0.1268
10743 H85 166.597 28.4 13.9454 H 0 **** 0.1268
10744 H86 170.416 28.8767 16.8419 H 0 **** 0.1268
10745 H87 169.618 30.2304 18.7491 H 0 **** 0.1268
10746 H88 156.181 37.0454 22.1232 H 0 **** 0.41
10747 H89 157.46 38.8371 24.7892 H 0 **** 0.053
10748 H90 158.974 38.6495 25.6745 H 0 **** 0.053
10749 H91 157.646 37.4816 25.9222 H 0 **** 0.053
10750 H92 161.555 32.634 18.4831 H 0 **** 0.41
10751 H93 163.003 28.6965 14.1915 H 0 **** 0.053
10752 H94 163.636 27.973 11.894 H 0 **** 0.053
10753 H95 164.684 27.1706 13.0896 H 0 **** 0.053
10754 H96 165.297 28.5582 12.1362 H 0 **** 0.053
10755 H97 170.058 28.6148 19.9267 H 0 **** 0.41
10756 H98 169 34.0754 26.224 H 0 **** 0.41
10757 H99 168.4 27.9609 14.1523 H 0 **** 0.41
10758 H100 168.037 32.6876 21.0878 H 0 **** 0.053
10759 H101 168.042 34.841 24.3224 H 0 **** 0.053
10760 H102 163.622 30.0652 13.2668 H 0 **** 0.053
10761 C1 156.863 31.1812 52.4746 C.ar 0 **** 0.042
10762 C2 155.96 31.186 53.5211 C.ar 0 **** -0.1268
10763 C3 154.682 30.6796 53.354 C.ar 0 **** 0
10764 C4 154.272 30.1535 52.128 C.ar 0 **** 0
10765 C5 155.198 30.141 51.08 C.ar 0 **** -0.1268
10766 C6 156.476 30.6572 51.2337 C.ar 0 **** 0
10767 C7 152.893 29.7179 52.2849 C.ar 0 **** 0
10768 C8 152.516 29.9768 53.5911 C.ar 0 **** 0
10769 C9 153.602 30.6111 54.3906 C.3 0 **** -0.106
10770 C10 151.239 29.6415 54.0265 C.ar 0 **** 0
10771 C11 150.315 29.0348 53.1496 C.ar 0 **** 0
10772 C12 150.755 28.8008 51.8179 C.ar 0 **** 0
10773 C13 152.035 29.1504 51.3756 C.ar 0 **** 0
10774 C14 152.451 28.8787 49.9572 C.3 0 **** -0.106
10775 C15 151.256 28.9787 49.0094 C.3 0 **** -0.106
10776 C16 150.253 27.9383 49.4285 C.3 0 **** -0.106
10777 C17 149.769 28.1525 50.8471 C.ar 0 **** 0
10778 C18 148.523 27.7643 51.223 C.ar 0 **** 0
10779 C19 148.094 27.9525 52.5065 C.ar 0 **** 0
10780 C20 148.994 28.67 53.5872 C.ar 0 **** 0
10781 C21 148.639 29.0181 54.9516 C.ar 0 **** 0
10782 C22 149.631 29.5892 55.7555 C.ar 0 **** 0
10783 C23 150.877 29.9037 55.3379 C.ar 0 **** 0.042
10784 C24 146.707 27.4702 52.9051 C.3 0 **** -0.106
10785 C25 145.963 26.566 51.8793 C.ar 0 **** 0
10786 C26 146.432 26.4389 50.5951 C.ar 0 **** 0
10787 C27 147.679 27.1175 50.129 C.3 0 **** -0.106
10788 C28 145.738 25.6723 49.6615 C.ar 0 **** 0.042
10789 C29 144.554 25.0265 49.9759 C.ar 0 **** 0
10790 C30 144.102 25.1567 51.2799 C.ar 0 **** 0
10791 C31 144.783 25.9138 52.2296 C.ar 0 **** 0
10792 C32 142.805 24.4797 51.7511 C.ar 0 **** 0
10793 C33 142.091 23.6691 50.6648 C.3 0 **** -0.106
10794 C34 142.312 24.2397 49.2655 C.3 0 **** -0.106
10795 C35 143.807 24.198 48.9585 C.3 0 **** -0.106
10796 C36 144.2 25.9886 53.6264 C.ar 0 **** -0.1268
10797 C37 143.04 25.3434 53.918 C.ar 0 **** 0.0265
10798 C38 142.357 24.6151 53.0238 C.ar 0 **** -0.1268
10799 C39 149.264 29.8935 57.1604 C.3 0 **** -0.106
10800 C40 147.835 29.4625 57.0878 C.ar 0 **** 0
10801 C41 147.475 28.9617 55.8353 C.ar 0 **** 0
10802 C42 146.122 28.5857 55.7003 C.ar 0 **** -0.1268
10803 C43 145.213 28.6687 56.776 C.ar 0 **** 0
10804 C44 145.62 29.1621 58.0337 C.ar 0 **** 0
10805 C45 146.956 29.5727 58.1767 C.ar 0 **** 0
10806 C46 147.375 30.1001 59.4173 C.ar 0 **** -0.1268
10807 C47 146.521 30.2244 60.5024 C.ar 0 **** 0
10808 C48 145.21 29.8173 60.3395 C.ar 0 **** -0.1268
10809 C49 144.732 29.2869 59.1295 C.ar 0 **** 0
10810 C50 143.396 28.8824 58.959 C.ar 0 **** 0.042
10811 C51 142.968 28.388 57.7429 C.ar 0 **** -0.1268
10812 C52 143.847 28.2881 56.6679 C.ar 0 **** -0.1268
10813 O53 158.134 31.6803 52.6367 O.3 0 **** -0.452
10814 C54 157.461 30.6272 50.0758 C.3 0 **** -0.159
10815 O55 151.745 30.4674 56.1959 O.3 0 **** -0.452
10816 C56 147.111 30.8187 61.7765 C.3 0 **** -0.106
10817 C57 146.15 30.7515 62.9683 C.3 0 **** -0.159
10818 O58 142.558 25.4454 55.1676 O.3 0 **** -0.4365
10819 O59 146.182 25.5187 48.3763 O.3 0 **** -0.452
10820 O60 142.455 28.9449 59.9213 O.3 0 **** -0.452
10821 H61 156.231 31.5898 54.5236 H 0 **** 0.1268
10822 H62 154.986 29.7225 50.0867 H 0 **** 0.1268
10823 H63 153.352 31.627 54.7464 H 0 **** 0.053
10824 H64 153.939 29.9959 55.2452 H 0 **** 0.053
10825 H65 153.187 29.5984 49.6095 H 0 **** 0.053
10826 H66 152.891 27.861 49.8656 H 0 **** 0.053
10827 H67 150.821 30.0077 49.0375 H 0 **** 0.053
10828 H68 151.585 28.8102 47.9418 H 0 **** 0.053
10829 H69 149.417 27.964 48.7187 H 0 **** 0.053
10830 H70 150.718 26.9409 49.338 H 0 **** 0.053
10831 H71 146.801 26.8957 53.8506 H 0 **** 0.053
10832 H72 148.308 26.3661 49.6415 H 0 **** 0.053
10833 H73 142.464 22.6251 50.6995 H 0 **** 0.053
10834 H74 141.023 23.6354 50.923 H 0 **** 0.053
10835 H75 141.755 23.6486 48.5279 H 0 **** 0.053
10836 H76 141.931 25.2696 49.2071 H 0 **** 0.053
10837 H77 144.173 23.1631 48.9994 H 0 **** 0.053
10838 H78 143.998 24.5686 47.9577 H 0 **** 0.053
10839 H79 144.74 26.551 54.3639 H 0 **** 0.1268
10840 H80 141.442 24.1068 53.2824 H 0 **** 0.1268
10841 H81 149.82 29.2909 57.8957 H 0 **** 0.053
10842 H82 149.338 30.9645 57.4084 H 0 **** 0.053
10843 H83 145.663 28.2358 54.7871 H 0 **** 0.1268
10844 H84 148.423 30.4286 59.5427 H 0 **** 0.1268
10845 H85 144.536 29.9181 61.1863 H 0 **** 0.1268
10846 H86 141.924 28.0711 57.5844 H 0 **** 0.1268
10847 H87 143.478 27.9197 55.6694 H 0 **** 0.1268
10848 H88 158.216 31.9901 53.5285 H 0 **** 0.41
10849 H89 158.129 31.4959 50.1081 H 0 **** 0.053
10850 H90 156.952 30.651 49.1023 H 0 **** 0.053
10851 H91 158.085 29.7199 50.1216 H 0 **** 0.053
10852 H92 151.343 30.5831 57.0454 H 0 **** 0.41
10853 H93 148.029 30.2832 62.0402 H 0 **** 0.053
10854 H94 146.61 31.1804 63.8803 H 0 **** 0.053
10855 H95 145.867 29.7086 63.2079 H 0 **** 0.053
10856 H96 145.223 31.3245 62.7791 H 0 **** 0.053
10857 H97 143.163 25.9007 55.7307 H 0 **** 0.41
10858 H98 146.982 26.0028 48.2487 H 0 **** 0.41
10859 H99 142.837 29.3038 60.7123 H 0 **** 0.41
10860 H100 146.08 28.3787 53.0178 H 0 **** 0.053
10861 H101 147.419 27.8968 49.4032 H 0 **** 0.053
10862 H102 147.384 31.8656 61.6013 H 0 **** 0.053
10863 C1 142.175 27.9497 5.26368 C.ar 0 **** 0.042
10864 C2 141.474 26.7673 5.41118 C.ar 0 **** -0.1268
10865 C3 140.102 26.7776 5.60149 C.ar 0 **** 0
10866 C4 139.393 27.9785 5.65177 C.ar 0 **** 0
10867 C5 140.11 29.1682 5.49069 C.ar 0 **** -0.1268
10868 C6 141.485 29.1689 5.31197 C.ar 0 **** 0
10869 C7 137.993 27.6438 5.86408 C.ar 0 **** 0
10870 C8 137.894 26.2646 5.92095 C.ar 0 **** 0
10871 C9 139.211 25.5843 5.76609 C.3 0 **** -0.106
10872 C10 136.654 25.6622 6.10098 C.ar 0 **** 0
10873 C11 135.486 26.443 6.22605 C.ar 0 **** 0
10874 C12 135.649 27.8543 6.16896 C.ar 0 **** 0
10875 C13 136.898 28.461 6.00108 C.ar 0 **** 0
10876 C14 137.016 29.9582 5.94498 C.3 0 **** -0.106
10877 C15 135.948 30.6224 6.81473 C.3 0 **** -0.106
10878 C16 134.603 30.2211 6.2727 C.3 0 **** -0.106
10879 C17 134.399 28.7214 6.31054 C.ar 0 **** 0
10880 C18 133.156 28.1925 6.44599 C.ar 0 **** 0
10881 C19 132.975 26.8383 6.47224 C.ar 0 **** 0
10882 C20 134.193 25.8358 6.40016 C.ar 0 **** 0
10883 C21 134.161 24.3878 6.50844 C.ar 0 **** 0
10884 C22 135.366 23.6973 6.34057 C.ar 0 **** 0
10885 C23 136.571 24.2803 6.1517 C.ar 0 **** 0.042
10886 C24 131.565 26.2778 6.58563 C.3 0 **** -0.106
10887 C25 130.397 27.2928 6.41462 C.ar 0 **** 0
10888 C26 130.642 28.6437 6.42671 C.ar 0 **** 0
10889 C27 132.02 29.2054 6.55541 C.3 0 **** -0.106
10890 C28 129.59 29.5527 6.33621 C.ar 0 **** 0.042
10891 C29 128.273 29.1435 6.22922 C.ar 0 **** 0
10892 C30 128.046 27.7761 6.20613 C.ar 0 **** 0
10893 C31 129.082 26.8506 6.30078 C.ar 0 **** 0
10894 C32 126.626 27.1993 6.09296 C.ar 0 **** 0
10895 C33 125.525 28.2606 6.00359 C.3 0 **** -0.106
10896 C34 125.882 29.5439 6.75031 C.3 0 **** -0.106
10897 C35 127.14 30.135 6.1171 C.3 0 **** -0.106
10898 C36 128.722 25.379 6.26988 C.ar 0 **** -0.1268
10899 C37 127.422 24.9957 6.16915 C.ar 0 **** 0.0265
10900 C38 126.402 25.8616 6.08523 C.ar 0 **** -0.1268
10901 C39 135.306 22.2163 6.4063 C.3 0 **** -0.106
10902 C40 133.847 22.0921 6.70361 C.ar 0 **** 0
10903 C41 133.19 23.3231 6.76041 C.ar 0 **** 0
10904 C42 131.819 23.2634 7.08627 C.ar 0 **** -0.1268
10905 C43 131.154 22.0368 7.29267 C.ar 0 **** 0
10906 C44 131.848 20.8111 7.20683 C.ar 0 **** 0
10907 C45 133.221 20.8533 6.91647 C.ar 0 **** 0
10908 C46 133.941 19.64 6.85878 C.ar 0 **** -0.1268
10909 C47 133.344 18.4071 7.07326 C.ar 0 **** 0
10910 C48 131.992 18.3881 7.36078 C.ar 0 **** -0.1268
10911 C49 131.223 19.5613 7.43445 C.ar 0 **** 0
10912 C50 129.85 19.5443 7.73786 C.ar 0 **** 0.042
10913 C51 129.14 20.7261 7.82161 C.ar 0 **** -0.1268
10914 C52 129.771 21.9495 7.61389 C.ar 0 **** -0.1268
10915 O53 143.535 27.9441 5.06542 O.3 0 **** -0.452
10916 C54 142.237 30.4795 5.13853 C.3 0 **** -0.159
10917 O55 137.668 23.5149 6.01904 O.3 0 **** -0.452
10918 C56 134.248 17.1819 6.98691 C.3 0 **** -0.106
10919 C57 133.473 15.8617 7.05881 C.3 0 **** -0.159
10920 O58 127.151 23.6803 6.15497 O.3 0 **** -0.4365
10921 O59 129.799 30.9047 6.34596 O.3 0 **** -0.452
10922 O60 129.137 18.4251 7.97069 O.3 0 **** -0.452
10923 H61 141.986 25.7782 5.37792 H 0 **** 0.1268
10924 H62 139.643 30.1632 5.48528 H 0 **** 0.1268
10925 H63 139.515 25.0032 6.65563 H 0 **** 0.053
10926 H64 139.273 24.941 4.86906 H 0 **** 0.053
10927 H65 137.978 30.3001 6.31577 H 0 **** 0.053
10928 H66 136.897 30.3221 4.90055 H 0 **** 0.053
10929 H67 136.071 30.3194 7.88323 H 0 **** 0.053
10930 H68 136.068 31.746 6.79566 H 0 **** 0.053
10931 H69 133.831 30.7397 6.85519 H 0 **** 0.053
10932 H70 134.517 30.585 5.2337 H 0 **** 0.053
10933 H71 131.443 25.4928 5.80984 H 0 **** 0.053
10934 H72 132.163 29.9356 5.75272 H 0 **** 0.053
10935 H73 125.345 28.4951 4.93456 H 0 **** 0.053
10936 H74 124.599 27.8132 6.39189 H 0 **** 0.053
10937 H75 125.052 30.258 6.68647 H 0 **** 0.053
10938 H76 126.046 29.3342 7.81709 H 0 **** 0.053
10939 H77 126.961 30.359 5.05658 H 0 **** 0.053
10940 H78 127.406 31.0672 6.60272 H 0 **** 0.053
10941 H79 129.523 24.6669 6.31653 H 0 **** 0.1268
10942 H80 125.379 25.5294 5.99893 H 0 **** 0.1268
10943 H81 135.556 21.7278 5.45132 H 0 **** 0.053
10944 H82 135.909 21.7907 7.22384 H 0 **** 0.053
10945 H83 131.177 24.1204 7.22906 H 0 **** 0.1268
10946 H84 135.023 19.6592 6.63276 H 0 **** 0.1268
10947 H85 131.521 17.424 7.53491 H 0 **** 0.1268
10948 H86 128.065 20.7369 8.06382 H 0 **** 0.1268
10949 H87 129.191 22.9091 7.72205 H 0 **** 0.1268
10950 H88 143.834 27.0455 5.08953 H 0 **** 0.41
10951 H89 143.242 30.4146 5.57028 H 0 **** 0.053
10952 H90 141.728 31.3148 5.63943 H 0 **** 0.053
10953 H91 142.343 30.7286 4.07067 H 0 **** 0.053
10954 H92 137.44 22.5978 6.08535 H 0 **** 0.41
10955 H93 134.808 17.2049 6.04638 H 0 **** 0.053
10956 H94 134.154 14.9911 6.98284 H 0 **** 0.053
10957 H95 132.739 15.772 6.23491 H 0 **** 0.053
10958 H96 132.929 15.7583 8.01621 H 0 **** 0.053
10959 H97 127.943 23.1682 6.12362 H 0 **** 0.41
10960 H98 130.721 31.0941 6.40294 H 0 **** 0.41
10961 H99 129.704 17.668 7.90128 H 0 **** 0.41
10962 H100 131.47 25.8783 7.61602 H 0 **** 0.053
10963 H101 132.117 29.7115 7.52158 H 0 **** 0.053
10964 H102 134.98 17.2069 7.80231 H 0 **** 0.053
10965 C1 120.801 17.7602 52.9869 C.ar 0 **** 0.042
10966 C2 121.187 18.2036 54.2381 C.ar 0 **** -0.1268
10967 C3 120.455 19.1754 54.9004 C.ar 0 **** 0
10968 C4 119.313 19.7325 54.3235 C.ar 0 **** 0
10969 C5 118.924 19.268 53.0635 C.ar 0 **** -0.1268
10970 C6 119.657 18.3044 52.387 C.ar 0 **** 0
10971 C7 118.789 20.7126 55.2628 C.ar 0 **** 0
10972 C8 119.613 20.7102 56.3752 C.ar 0 **** 0
10973 C9 120.743 19.7469 56.2552 C.3 0 **** -0.106
10974 C10 119.334 21.5488 57.4489 C.ar 0 **** 0
10975 C11 118.215 22.407 57.4209 C.ar 0 **** 0
10976 C12 117.41 22.3729 56.2492 C.ar 0 **** 0
10977 C13 117.698 21.5389 55.1629 C.ar 0 **** 0
10978 C14 116.813 21.5397 53.9482 C.3 0 **** -0.106
10979 C15 116.205 22.9231 53.7166 C.3 0 **** -0.106
10980 C16 115.373 23.2633 54.9228 C.3 0 **** -0.106
10981 C17 116.197 23.2999 56.1919 C.ar 0 **** 0
10982 C18 115.85 24.1106 57.224 C.ar 0 **** 0
10983 C19 116.592 24.1349 58.3707 C.ar 0 **** 0
10984 C20 117.906 23.2715 58.5282 C.ar 0 **** 0
10985 C21 118.837 23.2654 59.6423 C.ar 0 **** 0
10986 C22 119.901 22.3579 59.5939 C.ar 0 **** 0
10987 C23 120.166 21.5326 58.557 C.ar 0 **** 0.042
10988 C24 116.153 25.0252 59.5237 C.3 0 **** -0.106
10989 C25 114.738 25.6643 59.4088 C.ar 0 **** 0
10990 C26 114.053 25.629 58.2192 C.ar 0 **** 0
10991 C27 114.599 24.9564 57.0023 C.3 0 **** -0.106
10992 C28 112.81 26.2469 58.1012 C.ar 0 **** 0.042
10993 C29 112.224 26.9266 59.1555 C.ar 0 **** 0
10994 C30 112.925 26.9416 60.3514 C.ar 0 **** 0
10995 C31 114.166 26.3262 60.4921 C.ar 0 **** 0
10996 C32 112.375 27.6569 61.5958 C.ar 0 **** 0
10997 C33 111.013 28.3251 61.3822 C.3 0 **** -0.106
10998 C34 110.812 28.806 59.9467 C.3 0 **** -0.106
10999 C35 110.877 27.5944 59.0196 C.3 0 **** -0.106
11000 C36 114.846 26.4035 61.8443 C.ar 0 **** -0.1268
11001 C37 114.253 27.0702 62.8696 C.ar 0 **** 0.0265
11002 C38 113.064 27.6803 62.7634 C.ar 0 **** -0.1268
11003 C39 120.815 22.332 60.7627 C.3 0 **** -0.106
11004 C40 120.169 23.4317 61.5412 C.ar 0 **** 0
11005 C41 119.043 23.9644 60.9104 C.ar 0 **** 0
11006 C42 118.425 25.0393 61.5825 C.ar 0 **** -0.1268
11007 C43 118.89 25.5068 62.8291 C.ar 0 **** 0
11008 C44 120.021 24.9289 63.445 C.ar 0 **** 0
11009 C45 120.669 23.8798 62.7741 C.ar 0 **** 0
11010 C46 121.822 23.3095 63.3577 C.ar 0 **** -0.1268
11011 C47 122.335 23.7419 64.5708 C.ar 0 **** 0
11012 C48 121.684 24.7786 65.2131 C.ar 0 **** -0.1268
11013 C49 120.535 25.3879 64.6821 C.ar 0 **** 0
11014 C50 119.877 26.4487 65.3296 C.ar 0 **** 0.042
11015 C51 118.764 27.0313 64.7564 C.ar 0 **** -0.1268
11016 C52 118.28 26.583 63.5305 C.ar 0 **** -0.1268
11017 O53 121.521 16.7932 52.3275 O.3 0 **** -0.452
11018 C54 119.207 17.817 51.0182 C.3 0 **** -0.159
11019 O55 121.23 20.7126 58.6129 O.3 0 **** -0.452
11020 C56 123.59 23.0385 65.0748 C.3 0 **** -0.106
11021 C57 123.982 23.4573 66.4962 C.3 0 **** -0.159
11022 O58 114.897 27.1176 64.0476 O.3 0 **** -0.4365
11023 O59 112.097 26.2238 56.933 O.3 0 **** -0.452
11024 O60 120.26 26.9724 66.5106 O.3 0 **** -0.452
11025 H61 122.087 17.7934 54.7497 H 0 **** 0.1268
11026 H62 118.026 19.6184 52.5368 H 0 **** 0.1268
11027 H63 121.737 20.2304 56.2599 H 0 **** 0.053
11028 H64 120.722 18.9441 57.015 H 0 **** 0.053
11029 H65 117.366 21.2869 53.0482 H 0 **** 0.053
11030 H66 115.986 20.8053 54.0653 H 0 **** 0.053
11031 H67 117.01 23.6786 53.5424 H 0 **** 0.053
11032 H68 115.572 22.9226 52.7804 H 0 **** 0.053
11033 H69 114.886 24.2294 54.7406 H 0 **** 0.053
11034 H70 114.567 22.5139 55.0208 H 0 **** 0.053
11035 H71 116.171 24.4185 60.4534 H 0 **** 0.053
11036 H72 113.825 24.2869 56.6128 H 0 **** 0.053
11037 H73 110.217 27.5972 61.6408 H 0 **** 0.053
11038 H74 110.932 29.1533 62.0998 H 0 **** 0.053
11039 H75 109.841 29.3067 59.8518 H 0 **** 0.053
11040 H76 111.582 29.5429 59.6781 H 0 **** 0.053
11041 H77 110.09 26.8741 59.2831 H 0 **** 0.053
11042 H78 110.708 27.895 57.9917 H 0 **** 0.053
11043 H79 115.79 25.9066 61.9584 H 0 **** 0.1268
11044 H80 112.613 28.1966 63.5963 H 0 **** 0.1268
11045 H81 120.781 21.3828 61.3203 H 0 **** 0.053
11046 H82 121.855 22.5907 60.5089 H 0 **** 0.053
11047 H83 117.583 25.6035 61.2084 H 0 **** 0.1268
11048 H84 122.343 22.4841 62.8392 H 0 **** 0.1268
11049 H85 122.088 25.1249 66.1612 H 0 **** 0.1268
11050 H86 118.237 27.8689 65.2422 H 0 **** 0.1268
11051 H87 117.394 27.0905 63.054 H 0 **** 0.1268
11052 H88 122.257 16.5513 52.8725 H 0 **** 0.41
11053 H89 120.069 17.5549 50.3934 H 0 **** 0.053
11054 H90 118.64 18.5852 50.4745 H 0 **** 0.053
11055 H91 118.575 16.9199 51.1151 H 0 **** 0.053
11056 H92 121.692 20.8287 59.4317 H 0 **** 0.41
11057 H93 123.435 21.955 65.0619 H 0 **** 0.053
11058 H94 124.89 22.9224 66.8373 H 0 **** 0.053
11059 H95 123.179 23.2318 67.2249 H 0 **** 0.053
11060 H96 124.207 24.5385 66.5571 H 0 **** 0.053
11061 H97 115.674 26.583 64.0334 H 0 **** 0.41
11062 H98 112.576 25.7546 56.2691 H 0 **** 0.41
11063 H99 121.038 26.5245 66.8169 H 0 **** 0.41
11064 H100 116.866 25.8736 59.5532 H 0 **** 0.053
11065 H101 114.837 25.7125 56.2451 H 0 **** 0.053
11066 H102 124.426 23.2556 64.4004 H 0 **** 0.053
11067 C1 149.743 -3.49261 26.4076 C.ar 0 **** 0.042
11068 C2 149.761 -3.52621 27.7896 C.ar 0 **** -0.1268
11069 C3 149.879 -2.3577 28.5239 C.ar 0 **** 0
11070 C4 149.985 -1.11882 27.8901 C.ar 0 **** 0
11071 C5 149.952 -1.09446 26.4926 C.ar 0 **** -0.1268
11072 C6 149.846 -2.25993 25.7483 C.ar 0 **** 0
11073 C7 150.099 -0.109873 28.9322 C.ar 0 **** 0
11074 C8 150.045 -0.758529 30.1534 C.ar 0 **** 0
11075 C9 149.907 -2.23595 30.0172 C.3 0 **** -0.106
11076 C10 150.115 -0.0268703 31.3339 C.ar 0 **** 0
11077 C11 150.239 1.37797 31.304 C.ar 0 **** 0
11078 C12 150.298 1.9889 30.0215 C.ar 0 **** 0
11079 C13 150.241 1.25175 28.8334 C.ar 0 **** 0
11080 C14 150.305 1.94734 27.5027 C.3 0 **** -0.106
11081 C15 151.167 3.20731 27.5861 C.3 0 **** -0.106
11082 C16 150.527 4.13182 28.5862 C.3 0 **** -0.106
11083 C17 150.441 3.50879 29.9635 C.ar 0 **** 0
11084 C18 150.472 4.28168 31.0795 C.ar 0 **** 0
11085 C19 150.385 3.71586 32.3205 C.ar 0 **** 0
11086 C20 150.3 2.1511 32.5156 C.ar 0 **** 0
11087 C21 150.296 1.40999 33.7645 C.ar 0 **** 0
11088 C22 150.138 0.021639 33.6949 C.ar 0 **** 0
11089 C23 150.057 -0.689999 32.5489 C.ar 0 **** 0.042
11090 C24 150.384 4.61335 33.5493 C.3 0 **** -0.106
11091 C25 150.229 6.14115 33.2943 C.ar 0 **** 0
11092 C26 150.353 6.65122 32.0254 C.ar 0 **** 0
11093 C27 150.601 5.78258 30.8357 C.3 0 **** -0.106
11094 C28 150.269 8.02435 31.8044 C.ar 0 **** 0.042
11095 C29 150.073 8.92396 32.8381 C.ar 0 **** 0
11096 C30 149.939 8.38964 34.1103 C.ar 0 **** 0
11097 C31 150.016 7.02053 34.3524 C.ar 0 **** 0
11098 C32 149.712 9.28659 35.3377 C.ar 0 **** 0
11099 C33 149.646 10.7829 35.0157 C.3 0 **** -0.106
11100 C34 150.505 11.164 33.8121 C.3 0 **** -0.106
11101 C35 149.983 10.4108 32.5906 C.3 0 **** -0.106
11102 C36 149.858 6.54414 35.7819 C.ar 0 **** -0.1268
11103 C37 149.666 7.44208 36.7836 C.ar 0 **** 0.0265
11104 C38 149.595 8.76549 36.5841 C.ar 0 **** -0.1268
11105 C39 150.088 -0.713316 34.9827 C.3 0 **** -0.106
11106 C40 150.299 0.457994 35.8859 C.ar 0 **** 0
11107 C41 150.415 1.66811 35.1992 C.ar 0 **** 0
11108 C42 150.665 2.79916 36.0042 C.ar 0 **** -0.1268
11109 C43 150.742 2.71215 37.4098 C.ar 0 **** 0
11110 C44 150.599 1.47296 38.0694 C.ar 0 **** 0
11111 C45 150.384 0.330961 37.2815 C.ar 0 **** 0
11112 C46 150.272 -0.923605 37.9194 C.ar 0 **** -0.1268
11113 C47 150.361 -1.07171 39.2951 C.ar 0 **** 0
11114 C48 150.577 0.064836 40.0523 C.ar 0 **** -0.1268
11115 C49 150.7 1.33999 39.4756 C.ar 0 **** 0
11116 C50 150.931 2.495 40.2435 C.ar 0 **** 0.042
11117 C51 151.067 3.72402 39.6289 C.ar 0 **** -0.1268
11118 C52 150.985 3.83824 38.2438 C.ar 0 **** -0.1268
11119 O53 149.623 -4.64952 25.675 O.3 0 **** -0.452
11120 C54 149.81 -2.20149 24.2288 C.3 0 **** -0.159
11121 O55 149.925 -2.02678 32.6023 O.3 0 **** -0.452
11122 C56 150.229 -2.48826 39.8435 C.3 0 **** -0.106
11123 C57 150.16 -2.53245 41.3741 C.3 0 **** -0.159
11124 O58 149.545 6.97417 38.0366 O.3 0 **** -0.4365
11125 O59 150.381 8.56442 30.5519 O.3 0 **** -0.452
11126 O60 151.044 2.50422 41.5862 O.3 0 **** -0.452
11127 H61 149.676 -4.48523 28.3507 H 0 **** 0.1268
11128 H62 149.996 -0.170994 25.8995 H 0 **** 0.1268
11129 H63 150.764 -2.79929 30.4285 H 0 **** 0.053
11130 H64 148.968 -2.63317 30.4446 H 0 **** 0.053
11131 H65 150.749 1.31461 26.7399 H 0 **** 0.053
11132 H66 149.286 2.23776 27.1632 H 0 **** 0.053
11133 H67 152.214 2.94505 27.8751 H 0 **** 0.053
11134 H68 151.239 3.70188 26.5727 H 0 **** 0.053
11135 H69 151.107 5.06274 28.6104 H 0 **** 0.053
11136 H70 149.516 4.39496 28.23 H 0 **** 0.053
11137 H71 149.545 4.29763 34.2052 H 0 **** 0.053
11138 H72 149.866 6.04606 30.0686 H 0 **** 0.053
11139 H73 148.589 11.0554 34.8156 H 0 **** 0.053
11140 H74 149.95 11.3305 35.9184 H 0 **** 0.053
11141 H75 150.453 12.2465 33.6428 H 0 **** 0.053
11142 H76 151.56 10.9167 34.0005 H 0 **** 0.053
11143 H77 148.936 10.6801 32.3995 H 0 **** 0.053
11144 H78 150.552 10.6806 31.708 H 0 **** 0.053
11145 H79 149.89 5.48722 35.9637 H 0 **** 0.1268
11146 H80 149.428 9.45431 37.3975 H 0 **** 0.1268
11147 H81 149.113 -1.18773 35.1751 H 0 **** 0.053
11148 H82 150.901 -1.44828 35.0975 H 0 **** 0.053
11149 H83 150.84 3.79853 35.6337 H 0 **** 0.1268
11150 H84 150.104 -1.83085 37.3105 H 0 **** 0.1268
11151 H85 150.653 -0.0476048 41.1308 H 0 **** 0.1268
11152 H86 151.254 4.64226 40.2099 H 0 **** 0.1268
11153 H87 151.136 4.83988 37.7507 H 0 **** 0.1268
11154 H88 149.565 -5.37586 26.2812 H 0 **** 0.41
11155 H89 150.286 -3.0872 23.792 H 0 **** 0.053
11156 H90 150.346 -1.32495 23.8389 H 0 **** 0.053
11157 H91 148.77 -2.16394 23.8677 H 0 **** 0.053
11158 H92 149.904 -2.32118 33.5023 H 0 **** 0.41
11159 H93 149.323 -2.95361 39.442 H 0 **** 0.053
11160 H94 150.053 -3.57216 41.7415 H 0 **** 0.053
11161 H95 149.296 -1.96087 41.7621 H 0 **** 0.053
11162 H96 151.078 -2.12344 41.8365 H 0 **** 0.053
11163 H97 149.487 6.0324 38.048 H 0 **** 0.41
11164 H98 150.523 7.88208 29.9158 H 0 **** 0.41
11165 H99 150.939 1.62122 41.9167 H 0 **** 0.41
11166 H100 151.374 4.48547 34.0311 H 0 **** 0.053
11167 H101 151.609 5.97297 30.4503 H 0 **** 0.053
11168 H102 151.08 -3.09252 39.51 H 0 **** 0.053
11169 C1 161.922 48.0686 86.5328 C.ar 0 **** 0.042
11170 C2 163.16 47.7855 87.0786 C.ar 0 **** -0.1268
11171 C3 164.234 47.4608 86.2657 C.ar 0 **** 0
11172 C4 164.094 47.4098 84.878 C.ar 0 **** 0
11173 C5 162.841 47.711 84.3354 C.ar 0 **** -0.1268
11174 C6 161.757 48.0248 85.1415 C.ar 0 **** 0
11175 C7 165.389 47.0392 84.3279 C.ar 0 **** 0
11176 C8 166.269 46.8922 85.3858 C.ar 0 **** 0
11177 C9 165.628 47.1383 86.7085 C.3 0 **** -0.106
11178 C10 167.596 46.5536 85.1455 C.ar 0 **** 0
11179 C11 168.062 46.3583 83.8285 C.ar 0 **** 0
11180 C12 167.112 46.5141 82.7827 C.ar 0 **** 0
11181 C13 165.773 46.8415 83.025 C.ar 0 **** 0
11182 C14 164.809 46.9969 81.8826 C.3 0 **** -0.106
11183 C15 165.176 46.065 80.7277 C.3 0 **** -0.106
11184 C16 166.553 46.4451 80.2552 C.3 0 **** -0.106
11185 C17 167.591 46.299 81.3481 C.ar 0 **** 0
11186 C18 168.882 46.0083 81.0462 C.ar 0 **** 0
11187 C19 169.817 45.885 82.0352 C.ar 0 **** 0
11188 C20 169.435 46.0202 83.5615 C.ar 0 **** 0
11189 C21 170.296 45.8246 84.7146 C.ar 0 **** 0
11190 C22 169.752 46.0715 85.9798 C.ar 0 **** 0
11191 C23 168.466 46.4133 86.2146 C.ar 0 **** 0.042
11192 C24 171.264 45.5979 81.6603 C.3 0 **** -0.106
11193 C25 171.627 45.7114 80.1509 C.ar 0 **** 0
11194 C26 170.639 45.8066 79.2025 C.ar 0 **** 0
11195 C27 169.189 45.8438 79.5603 C.3 0 **** -0.106
11196 C28 170.961 45.8541 77.8479 C.ar 0 **** 0.042
11197 C29 172.27 45.7942 77.4022 C.ar 0 **** 0
11198 C30 173.255 45.71 78.3744 C.ar 0 **** 0
11199 C31 172.954 45.6658 79.7333 C.ar 0 **** 0
11200 C32 174.746 45.645 78.0041 C.ar 0 **** 0
11201 C33 175.018 45.6864 76.497 C.3 0 **** -0.106
11202 C34 173.894 45.0559 75.6783 C.3 0 **** -0.106
11203 C35 172.612 45.8462 75.9324 C.3 0 **** -0.106
11204 C36 174.108 45.5733 80.7111 C.ar 0 **** -0.1268
11205 C37 175.388 45.5205 80.2552 C.ar 0 **** 0.0265
11206 C38 175.709 45.5524 78.9543 C.ar 0 **** -0.1268
11207 C39 170.66 45.9134 87.1426 C.3 0 **** -0.106
11208 C40 171.869 45.4646 86.3883 C.ar 0 **** 0
11209 C41 171.669 45.4145 85.0074 C.ar 0 **** 0
11210 C42 172.766 44.9499 84.2532 C.ar 0 **** -0.1268
11211 C43 173.994 44.6063 84.8562 C.ar 0 **** 0
11212 C44 174.165 44.6893 86.2545 C.ar 0 **** 0
11213 C45 173.072 45.1179 87.0246 C.ar 0 **** 0
11214 C46 173.211 45.1764 88.4284 C.ar 0 **** -0.1268
11215 C47 174.387 44.8314 89.0766 C.ar 0 **** 0
11216 C48 175.45 44.4089 88.3 C.ar 0 **** -0.1268
11217 C49 175.372 44.3272 86.8997 C.ar 0 **** 0
11218 C50 176.449 43.887 86.1096 C.ar 0 **** 0.042
11219 C51 176.317 43.8021 84.7376 C.ar 0 **** -0.1268
11220 C52 175.118 44.1435 84.1173 C.ar 0 **** -0.1268
11221 O53 160.855 48.3937 87.3356 O.3 0 **** -0.452
11222 C54 160.407 48.3506 84.5218 C.3 0 **** -0.159
11223 O55 168.048 46.6089 87.4773 O.3 0 **** -0.452
11224 C56 174.389 44.936 90.5977 C.3 0 **** -0.106
11225 C57 175.776 44.7094 91.2103 C.3 0 **** -0.159
11226 O58 176.377 45.43 81.1596 O.3 0 **** -0.4365
11227 O59 170.001 45.9556 76.878 O.3 0 **** -0.452
11228 O60 177.649 43.5184 86.5987 O.3 0 **** -0.452
11229 H61 163.333 47.8139 88.179 H 0 **** 0.1268
11230 H62 162.634 47.7294 83.2567 H 0 **** 0.1268
11231 H63 165.622 46.2513 87.3675 H 0 **** 0.053
11232 H64 166.058 47.998 87.2549 H 0 **** 0.053
11233 H65 163.794 46.7451 82.1766 H 0 **** 0.053
11234 H66 164.812 48.0438 81.5067 H 0 **** 0.053
11235 H67 165.132 44.9985 81.058 H 0 **** 0.053
11236 H68 164.425 46.1621 79.8899 H 0 **** 0.053
11237 H69 166.802 45.8197 79.389 H 0 **** 0.053
11238 H70 166.53 47.4898 79.8982 H 0 **** 0.053
11239 H71 171.911 46.3102 82.2143 H 0 **** 0.053
11240 H72 168.737 46.6973 79.0445 H 0 **** 0.053
11241 H73 175.149 46.7441 76.1897 H 0 **** 0.053
11242 H74 175.978 45.1824 76.319 H 0 **** 0.053
11243 H75 174.15 45.0782 74.6118 H 0 **** 0.053
11244 H76 173.762 44.0007 75.9569 H 0 **** 0.053
11245 H77 172.748 46.894 75.632 H 0 **** 0.053
11246 H78 171.797 45.4446 75.3417 H 0 **** 0.053
11247 H79 173.876 45.566 81.7588 H 0 **** 0.1268
11248 H80 176.734 45.5173 78.6203 H 0 **** 0.1268
11249 H81 170.855 46.8585 87.6734 H 0 **** 0.053
11250 H82 170.33 45.1371 87.8513 H 0 **** 0.053
11251 H83 172.763 44.7939 83.1843 H 0 **** 0.1268
11252 H84 172.357 45.5107 89.0464 H 0 **** 0.1268
11253 H85 176.372 44.1324 88.8048 H 0 **** 0.1268
11254 H86 177.145 43.4544 84.0987 H 0 **** 0.1268
11255 H87 175.009 44.0342 83.0014 H 0 **** 0.1268
11256 H88 161.147 48.3724 88.2366 H 0 **** 0.41
11257 H89 159.588 48.0194 85.1712 H 0 **** 0.053
11258 H90 160.269 47.8515 83.5527 H 0 **** 0.053
11259 H91 160.302 49.4371 84.3728 H 0 **** 0.053
11260 H92 168.76 46.4712 88.0863 H 0 **** 0.41
11261 H93 174.035 45.9277 90.8976 H 0 **** 0.053
11262 H94 175.747 44.8023 92.314 H 0 **** 0.053
11263 H95 176.512 45.449 90.8417 H 0 **** 0.053
11264 H96 176.162 43.6979 90.9851 H 0 **** 0.053
11265 H97 176.044 45.5131 82.0388 H 0 **** 0.41
11266 H98 169.144 45.9796 77.2704 H 0 **** 0.41
11267 H99 177.643 43.6023 87.5436 H 0 **** 0.41
11268 H100 171.455 44.5416 81.9392 H 0 **** 0.053
11269 H101 168.707 44.9199 79.2201 H 0 **** 0.053
11270 H102 173.693 44.2011 91.0174 H 0 **** 0.053
11271 C1 125.121 13.8771 78.859 C.ar 0 **** 0.042
11272 C2 124.282 14.9522 78.6325 C.ar 0 **** -0.1268
11273 C3 124.732 16.068 77.9462 C.ar 0 **** 0
11274 C4 126.041 16.1372 77.4674 C.ar 0 **** 0
11275 C5 126.877 15.0392 77.69 C.ar 0 **** -0.1268
11276 C6 126.44 13.9228 78.3869 C.ar 0 **** 0
11277 C7 126.191 17.4251 76.8074 C.ar 0 **** 0
11278 C8 124.977 18.0852 76.8923 C.ar 0 **** 0
11279 C9 123.942 17.299 77.6204 C.3 0 **** -0.106
11280 C10 124.829 19.3455 76.3237 C.ar 0 **** 0
11281 C11 125.906 19.9646 75.6548 C.ar 0 **** 0
11282 C12 127.13 19.2434 75.6066 C.ar 0 **** 0
11283 C13 127.284 17.9809 76.1904 C.ar 0 **** 0
11284 C14 128.599 17.2596 76.1087 C.3 0 **** -0.106
11285 C15 129.765 18.2492 76.0981 C.3 0 **** -0.106
11286 C16 129.613 19.1199 74.8806 C.3 0 **** -0.106
11287 C17 128.313 19.8973 74.895 C.ar 0 **** 0
11288 C18 128.22 21.1066 74.2843 C.ar 0 **** 0
11289 C19 127.043 21.8014 74.2932 C.ar 0 **** 0
11290 C20 125.766 21.2624 75.0501 C.ar 0 **** 0
11291 C21 124.487 21.9284 75.2211 C.ar 0 **** 0
11292 C22 123.469 21.2226 75.8719 C.ar 0 **** 0
11293 C23 123.608 19.9924 76.4138 C.ar 0 **** 0.042
11294 C24 126.961 23.1354 73.5657 C.3 0 **** -0.106
11295 C25 128.162 23.5015 72.6456 C.ar 0 **** 0
11296 C26 129.328 22.7786 72.7029 C.ar 0 **** 0
11297 C27 129.495 21.601 73.6067 C.3 0 **** -0.106
11298 C28 130.421 23.1375 71.9173 C.ar 0 **** 0.042
11299 C29 130.389 24.2308 71.069 C.ar 0 **** 0
11300 C30 129.2 24.9419 71.0161 C.ar 0 **** 0
11301 C31 128.094 24.5967 71.7884 C.ar 0 **** 0
11302 C32 129.039 26.1698 70.1055 C.ar 0 **** 0
11303 C33 130.287 26.5066 69.2859 C.3 0 **** -0.106
11304 C34 131.581 26.125 70.001 C.3 0 **** -0.106
11305 C35 131.578 24.6141 70.2217 C.3 0 **** -0.106
11306 C36 126.843 25.4409 71.6503 C.ar 0 **** -0.1268
11307 C37 126.827 26.506 70.8062 C.ar 0 **** 0.0265
11308 C38 127.878 26.8706 70.0589 C.ar 0 **** -0.1268
11309 C39 122.155 21.9003 75.9945 C.3 0 **** -0.106
11310 C40 122.54 23.1926 75.3507 C.ar 0 **** 0
11311 C41 123.863 23.2136 74.9068 C.ar 0 **** 0
11312 C42 124.291 24.43 74.3344 C.ar 0 **** -0.1268
11313 C43 123.42 25.5292 74.1816 C.ar 0 **** 0
11314 C44 122.082 25.4624 74.625 C.ar 0 **** 0
11315 C45 121.649 24.2707 75.2281 C.ar 0 **** 0
11316 C46 120.323 24.1948 75.7086 C.ar 0 **** -0.1268
11317 C47 119.43 25.2503 75.6042 C.ar 0 **** 0
11318 C48 119.878 26.4158 75.0101 C.ar 0 **** -0.1268
11319 C49 121.185 26.5531 74.515 C.ar 0 **** 0
11320 C50 121.645 27.7418 73.921 C.ar 0 **** 0.042
11321 C51 122.947 27.8365 73.4695 C.ar 0 **** -0.1268
11322 C52 123.824 26.7629 73.6005 C.ar 0 **** -0.1268
11323 O53 124.678 12.7667 79.5372 O.3 0 **** -0.452
11324 C54 127.372 12.7423 78.6111 C.3 0 **** -0.159
11325 O55 122.563 19.4159 77.0335 O.3 0 **** -0.452
11326 C56 118.034 25.0277 76.1747 C.3 0 **** -0.106
11327 C57 117.068 26.1745 75.856 C.3 0 **** -0.159
11328 O58 125.696 27.2244 70.7172 O.3 0 **** -0.4365
11329 O59 131.594 22.4328 71.9429 O.3 0 **** -0.452
11330 O60 120.894 28.8473 73.7532 O.3 0 **** -0.452
11331 H61 123.225 14.9524 78.9878 H 0 **** 0.1268
11332 H62 127.913 14.9805 77.3285 H 0 **** 0.1268
11333 H63 123.593 17.7835 78.5504 H 0 **** 0.053
11334 H64 123.069 17.0324 76.9963 H 0 **** 0.053
11335 H65 128.753 16.6056 76.9623 H 0 **** 0.053
11336 H66 128.651 16.6426 75.1846 H 0 **** 0.053
11337 H67 129.773 18.8514 77.0392 H 0 **** 0.053
11338 H68 130.75 17.6962 76.0745 H 0 **** 0.053
11339 H69 130.476 19.7953 74.8335 H 0 **** 0.053
11340 H70 129.657 18.4818 73.9805 H 0 **** 0.053
11341 H71 126.047 23.1279 72.9354 H 0 **** 0.053
11342 H72 129.881 20.77 73.0083 H 0 **** 0.053
11343 H73 130.231 25.9731 68.3157 H 0 **** 0.053
11344 H74 130.255 27.5797 69.0591 H 0 **** 0.053
11345 H75 132.446 26.4202 69.394 H 0 **** 0.053
11346 H76 131.662 26.6578 70.9595 H 0 **** 0.053
11347 H77 131.517 24.0913 69.2576 H 0 **** 0.053
11348 H78 132.499 24.3004 70.7013 H 0 **** 0.053
11349 H79 125.983 25.158 72.2267 H 0 **** 0.1268
11350 H80 127.837 27.7178 69.3928 H 0 **** 0.1268
11351 H81 121.354 21.4009 75.4276 H 0 **** 0.053
11352 H82 121.843 22.0605 77.0389 H 0 **** 0.053
11353 H83 125.295 24.6375 73.9949 H 0 **** 0.1268
11354 H84 119.97 23.2628 76.1868 H 0 **** 0.1268
11355 H85 119.182 27.2475 74.931 H 0 **** 0.1268
11356 H86 123.331 28.7603 73.0062 H 0 **** 0.1268
11357 H87 124.894 26.8649 73.2643 H 0 **** 0.1268
11358 H88 123.773 12.9118 79.7797 H 0 **** 0.41
11359 H89 127.16 12.2523 79.5686 H 0 **** 0.053
11360 H90 128.427 13.0506 78.6362 H 0 **** 0.053
11361 H91 127.247 11.9929 77.8132 H 0 **** 0.053
11362 H92 121.808 19.9874 77.0111 H 0 **** 0.41
11363 H93 117.616 24.0997 75.7706 H 0 **** 0.053
11364 H94 116.061 25.9793 76.2735 H 0 **** 0.053
11365 H95 116.945 26.315 74.7649 H 0 **** 0.053
11366 H96 117.413 27.1322 76.289 H 0 **** 0.053
11367 H97 125.006 26.841 71.2351 H 0 **** 0.41
11368 H98 131.533 21.7221 72.5604 H 0 **** 0.41
11369 H99 120.023 28.6923 74.0964 H 0 **** 0.41
11370 H100 126.932 23.9181 74.351 H 0 **** 0.053
11371 H101 130.218 21.8463 74.3936 H 0 **** 0.053
11372 H102 118.096 24.9098 77.2626 H 0 **** 0.053
11373 C1 118.628 81.1903 53.4435 C.ar 0 **** 0.042
11374 C2 117.422 81.1492 52.769 C.ar 0 **** -0.1268
11375 C3 117.387 81.0591 51.3873 C.ar 0 **** 0
11376 C4 118.565 81.0102 50.6408 C.ar 0 **** 0
11377 C5 119.78 81.0373 51.3335 C.ar 0 **** -0.1268
11378 C6 119.825 81.1394 52.716 C.ar 0 **** 0
11379 C7 118.183 80.9321 49.2388 C.ar 0 **** 0
11380 C8 116.801 80.9117 49.179 C.ar 0 **** 0
11381 C9 116.164 80.9993 50.5234 C.3 0 **** -0.106
11382 C10 116.16 80.8177 47.9485 C.ar 0 **** 0
11383 C11 116.904 80.7332 46.7527 C.ar 0 **** 0
11384 C12 118.32 80.7661 46.8757 C.ar 0 **** 0
11385 C13 118.963 80.8862 48.1119 C.ar 0 **** 0
11386 C14 120.458 80.9234 48.1879 C.3 0 **** -0.106
11387 C15 121.069 81.56 46.9435 C.3 0 **** -0.106
11388 C16 120.655 80.7369 45.7526 C.3 0 **** -0.106
11389 C17 119.15 80.6808 45.5948 C.ar 0 **** 0
11390 C18 118.583 80.5446 44.3679 C.ar 0 **** 0
11391 C19 117.225 80.4862 44.2312 C.ar 0 **** 0
11392 C20 116.257 80.6234 45.4723 C.ar 0 **** 0
11393 C21 114.806 80.673 45.4686 C.ar 0 **** 0
11394 C22 114.155 80.7264 46.7059 C.ar 0 **** 0
11395 C23 114.776 80.8045 47.9035 C.ar 0 **** 0.042
11396 C24 116.623 80.2955 42.8472 C.3 0 **** -0.106
11397 C25 117.613 79.9284 41.7039 C.ar 0 **** 0
11398 C26 118.969 80.0328 41.8958 C.ar 0 **** 0
11399 C27 119.561 80.4604 43.1988 C.3 0 **** -0.106
11400 C28 119.854 79.7555 40.8555 C.ar 0 **** 0.042
11401 C29 119.414 79.3833 39.5971 C.ar 0 **** 0
11402 C30 118.042 79.2733 39.4259 C.ar 0 **** 0
11403 C31 117.141 79.5394 40.4534 C.ar 0 **** 0
11404 C32 117.432 78.8628 38.077 C.ar 0 **** 0
11405 C33 118.467 78.5957 36.9837 C.3 0 **** -0.106
11406 C34 119.729 79.4381 37.1378 C.3 0 **** -0.106
11407 C35 120.379 79.0857 38.474 C.3 0 **** -0.106
11408 C36 115.663 79.3855 40.1564 C.ar 0 **** -0.1268
11409 C37 115.25 79.0126 38.9163 C.ar 0 **** 0.0265
11410 C38 116.091 78.7586 37.9045 C.ar 0 **** -0.1268
11411 C39 112.672 80.727 46.6842 C.3 0 **** -0.106
11412 C40 112.498 80.7214 45.2004 C.ar 0 **** 0
11413 C41 113.707 80.6884 44.5042 C.ar 0 **** 0
11414 C42 113.598 80.7308 43.0987 C.ar 0 **** -0.1268
11415 C43 112.347 80.7564 42.4478 C.ar 0 **** 0
11416 C44 111.145 80.7684 43.1864 C.ar 0 **** 0
11417 C45 111.235 80.7609 44.5875 C.ar 0 **** 0
11418 C46 110.045 80.8058 45.3454 C.ar 0 **** -0.1268
11419 C47 108.789 80.8527 44.7598 C.ar 0 **** 0
11420 C48 108.722 80.8628 43.3788 C.ar 0 **** -0.1268
11421 C49 109.871 80.822 42.5708 C.ar 0 **** 0
11422 C50 109.805 80.8433 41.1662 C.ar 0 **** 0.042
11423 C51 110.963 80.8246 40.4145 C.ar 0 **** -0.1268
11424 C52 112.211 80.7907 41.0326 C.ar 0 **** -0.1268
11425 O53 118.666 81.2785 54.8146 O.3 0 **** -0.452
11426 C54 121.161 81.165 53.4425 C.3 0 **** -0.159
11427 O55 114.047 80.8708 49.0306 O.3 0 **** -0.452
11428 C56 107.593 80.9061 45.7036 C.3 0 **** -0.106
11429 C57 106.25 80.7749 44.9751 C.3 0 **** -0.159
11430 O58 113.93 78.8963 38.6983 O.3 0 **** -0.4365
11431 O59 121.21 79.8425 41.0146 O.3 0 **** -0.452
11432 O60 108.659 80.889 40.4601 O.3 0 **** -0.452
11433 H61 116.449 81.1826 53.3109 H 0 **** 0.1268
11434 H62 120.761 80.9675 50.8438 H 0 **** 0.1268
11435 H63 115.556 81.9113 50.663 H 0 **** 0.053
11436 H64 115.561 80.1111 50.7851 H 0 **** 0.053
11437 H65 120.813 81.4821 49.0461 H 0 **** 0.053
11438 H66 120.837 79.8922 48.2731 H 0 **** 0.053
11439 H67 120.73 82.6205 46.8506 H 0 **** 0.053
11440 H68 122.195 81.599 47.0306 H 0 **** 0.053
11441 H69 121.128 81.1677 44.8609 H 0 **** 0.053
11442 H70 121.057 79.7149 45.8638 H 0 **** 0.053
11443 H71 115.868 79.4842 42.9091 H 0 **** 0.053
11444 H72 120.328 79.7303 43.4753 H 0 **** 0.053
11445 H73 118.74 77.5246 37.0251 H 0 **** 0.053
11446 H74 117.977 78.7695 36.0163 H 0 **** 0.053
11447 H75 120.421 79.2305 36.3124 H 0 **** 0.053
11448 H76 119.484 80.5084 37.0936 H 0 **** 0.053
11449 H77 120.641 78.0192 38.4989 H 0 **** 0.053
11450 H78 121.297 79.6466 38.6084 H 0 **** 0.053
11451 H79 114.971 79.5664 40.9564 H 0 **** 0.1268
11452 H80 115.737 78.4561 36.9317 H 0 **** 0.1268
11453 H81 112.23 79.825 47.1362 H 0 **** 0.053
11454 H82 112.23 81.6335 47.1275 H 0 **** 0.053
11455 H83 114.432 80.7722 42.4129 H 0 **** 0.1268
11456 H84 110.102 80.8018 46.4494 H 0 **** 0.1268
11457 H85 107.74 80.9049 42.9159 H 0 **** 0.1268
11458 H86 110.936 80.8469 39.3127 H 0 **** 0.1268
11459 H87 113.149 80.8144 40.4108 H 0 **** 0.1268
11460 H88 117.774 81.2997 55.133 H 0 **** 0.41
11461 H89 121.104 81.7864 54.344 H 0 **** 0.053
11462 H90 121.961 81.5822 52.8158 H 0 **** 0.053
11463 H91 121.453 80.1483 53.7505 H 0 **** 0.053
11464 H92 113.122 80.85 48.8278 H 0 **** 0.41
11465 H93 107.669 80.0984 46.4388 H 0 **** 0.053
11466 H94 105.402 80.8064 45.6871 H 0 **** 0.053
11467 H95 106.176 79.818 44.4238 H 0 **** 0.053
11468 H96 106.093 81.5997 44.2551 H 0 **** 0.053
11469 H97 113.441 79.0085 39.4978 H 0 **** 0.41
11470 H98 121.419 80.1127 41.8943 H 0 **** 0.41
11471 H99 107.922 80.9079 41.0575 H 0 **** 0.41
11472 H100 116.18 81.2712 42.5623 H 0 **** 0.053
11473 H101 120.025 81.4462 43.0806 H 0 **** 0.053
11474 H102 107.603 81.852 46.2572 H 0 **** 0.053
11475 C1 124.746 88.0362 29.552 C.ar 0 **** 0.042
11476 C2 124.209 86.9278 30.1789 C.ar 0 **** -0.1268
11477 C3 124.131 85.7125 29.5191 C.ar 0 **** 0
11478 C4 124.587 85.5763 28.2067 C.ar 0 **** 0
11479 C5 125.136 86.701 27.585 C.ar 0 **** -0.1268
11480 C6 125.21 87.9235 28.2343 C.ar 0 **** 0
11481 C7 124.361 84.1941 27.8128 C.ar 0 **** 0
11482 C8 123.795 83.537 28.891 C.ar 0 **** 0
11483 C9 123.591 84.4274 30.0683 C.3 0 **** -0.106
11484 C10 123.487 82.1846 28.7974 C.ar 0 **** 0
11485 C11 123.746 81.4675 27.6107 C.ar 0 **** 0
11486 C12 124.321 82.1965 26.5336 C.ar 0 **** 0
11487 C13 124.619 83.5605 26.6228 C.ar 0 **** 0
11488 C14 125.228 84.2842 25.455 C.3 0 **** -0.106
11489 C15 124.749 83.6863 24.1322 C.3 0 **** -0.106
11490 C16 125.19 82.2484 24.0952 C.3 0 **** -0.106
11491 C17 124.603 81.4431 25.235 C.ar 0 **** 0
11492 C18 124.363 80.114 25.0957 C.ar 0 **** 0
11493 C19 123.84 79.3895 26.1296 C.ar 0 **** 0
11494 C20 123.445 80.0655 27.5012 C.ar 0 **** 0
11495 C21 122.801 79.4454 28.6454 C.ar 0 **** 0
11496 C22 122.612 80.2287 29.7889 C.ar 0 **** 0
11497 C23 122.923 81.5399 29.8862 C.ar 0 **** 0.042
11498 C24 123.62 77.8941 25.9539 C.3 0 **** -0.106
11499 C25 124.242 77.2437 24.6838 C.ar 0 **** 0
11500 C26 124.727 78.0284 23.6668 C.ar 0 **** 0
11501 C27 124.721 79.5205 23.736 C.3 0 **** -0.106
11502 C28 125.235 77.4472 22.5069 C.ar 0 **** 0.042
11503 C29 125.26 76.0755 22.3228 C.ar 0 **** 0
11504 C30 124.777 75.2994 23.3648 C.ar 0 **** 0
11505 C31 124.269 75.8598 24.5341 C.ar 0 **** 0
11506 C32 124.759 73.7645 23.2817 C.ar 0 **** 0
11507 C33 125.319 73.2025 21.9708 C.3 0 **** -0.106
11508 C34 125.09 74.137 20.7849 C.3 0 **** -0.106
11509 C35 125.812 75.4532 21.0627 C.3 0 **** -0.106
11510 C36 123.766 74.9187 25.61 C.ar 0 **** -0.1268
11511 C37 123.804 73.5743 25.4137 C.ar 0 **** 0.0265
11512 C38 124.277 73.0049 24.2965 C.ar 0 **** -0.1268
11513 C39 121.997 79.5647 30.9641 C.3 0 **** -0.106
11514 C40 121.775 78.226 30.3386 C.ar 0 **** 0
11515 C41 122.233 78.1521 29.0214 C.ar 0 **** 0
11516 C42 122.004 76.9235 28.3686 C.ar 0 **** -0.1268
11517 C43 121.395 75.8332 29.0241 C.ar 0 **** 0
11518 C44 120.963 75.9396 30.3635 C.ar 0 **** 0
11519 C45 121.153 77.1665 31.0189 C.ar 0 **** 0
11520 C46 120.701 77.305 32.3492 C.ar 0 **** -0.1268
11521 C47 120.079 76.2722 33.0346 C.ar 0 **** 0
11522 C48 119.897 75.0745 32.3689 C.ar 0 **** -0.1268
11523 C49 120.327 74.8767 31.0472 C.ar 0 **** 0
11524 C50 120.145 73.6614 30.3645 C.ar 0 **** 0.042
11525 C51 120.555 73.5235 29.0545 C.ar 0 **** -0.1268
11526 C52 121.161 74.583 28.3875 C.ar 0 **** -0.1268
11527 O53 124.839 89.2413 30.2053 O.3 0 **** -0.452
11528 C54 125.814 89.1283 27.5362 C.3 0 **** -0.159
11529 O55 122.679 82.1994 31.0319 O.3 0 **** -0.452
11530 C56 119.634 76.565 34.4623 C.3 0 **** -0.106
11531 C57 119.121 75.3199 35.1958 C.3 0 **** -0.159
11532 O58 123.339 72.7803 26.3926 O.3 0 **** -0.4365
11533 O59 125.733 78.1998 21.4781 O.3 0 **** -0.452
11534 O60 119.576 72.566 30.895 O.3 0 **** -0.452
11535 H61 123.834 86.9756 31.2268 H 0 **** 0.1268
11536 H62 125.55 86.6939 26.5678 H 0 **** 0.1268
11537 H63 122.53 84.5515 30.3494 H 0 **** 0.053
11538 H64 124.173 84.124 30.9581 H 0 **** 0.053
11539 H65 124.949 85.3338 25.4428 H 0 **** 0.053
11540 H66 126.338 84.2203 25.4903 H 0 **** 0.053
11541 H67 123.64 83.7815 24.0405 H 0 **** 0.053
11542 H68 125.183 84.2607 23.2612 H 0 **** 0.053
11543 H69 124.901 81.827 23.1246 H 0 **** 0.053
11544 H70 126.293 82.2142 24.142 H 0 **** 0.053
11545 H71 124.048 77.377 26.8381 H 0 **** 0.053
11546 H72 125.727 79.8727 23.4886 H 0 **** 0.053
11547 H73 126.407 73.0273 22.0964 H 0 **** 0.053
11548 H74 124.855 72.2202 21.8056 H 0 **** 0.053
11549 H75 125.475 73.6775 19.8663 H 0 **** 0.053
11550 H76 124.014 74.308 20.6337 H 0 **** 0.053
11551 H77 126.888 75.274 21.1919 H 0 **** 0.053
11552 H78 125.696 76.1324 20.2255 H 0 **** 0.053
11553 H79 123.4 75.3512 26.5211 H 0 **** 0.1268
11554 H80 124.302 71.9338 24.1704 H 0 **** 0.1268
11555 H81 122.677 79.4876 31.8269 H 0 **** 0.053
11556 H82 121.039 80.0168 31.2696 H 0 **** 0.053
11557 H83 122.239 76.7139 27.3353 H 0 **** 0.1268
11558 H84 120.842 78.2666 32.8767 H 0 **** 0.1268
11559 H85 119.402 74.2693 32.9031 H 0 **** 0.1268
11560 H86 120.408 72.5811 28.5029 H 0 **** 0.1268
11561 H87 121.463 74.47 27.3087 H 0 **** 0.1268
11562 H88 124.456 89.1421 31.0655 H 0 **** 0.41
11563 H89 125.319 90.0457 27.8704 H 0 **** 0.053
11564 H90 125.698 89.0744 26.445 H 0 **** 0.053
11565 H91 126.887 89.2191 27.77 H 0 **** 0.053
11566 H92 122.294 81.6177 31.6728 H 0 **** 0.41
11567 H93 120.47 76.9859 35.0297 H 0 **** 0.053
11568 H94 118.815 75.5528 36.2336 H 0 **** 0.053
11569 H95 119.9 74.5365 35.2622 H 0 **** 0.053
11570 H96 118.235 74.8879 34.6967 H 0 **** 0.053
11571 H97 123.119 73.28 27.1625 H 0 **** 0.41
11572 H98 125.665 79.118 21.6843 H 0 **** 0.41
11573 H99 119.283 72.7565 31.7773 H 0 **** 0.41
11574 H100 122.524 77.7483 25.8628 H 0 **** 0.053
11575 H101 124.009 79.9152 23.0016 H 0 **** 0.053
11576 H102 118.839 77.3194 34.4436 H 0 **** 0.053
11577 C1 148.736 70.9384 50.6606 C.ar 0 **** 0.042
11578 C2 147.997 72.0273 51.0852 C.ar 0 **** -0.1268
11579 C3 148.617 73.1095 51.6885 C.ar 0 **** 0
11580 C4 149.998 73.1291 51.8844 C.ar 0 **** 0
11581 C5 150.737 72.0288 51.4395 C.ar 0 **** -0.1268
11582 C6 150.125 70.935 50.8458 C.ar 0 **** 0
11583 C7 150.323 74.3874 52.5384 C.ar 0 **** 0
11584 C8 149.143 75.0917 52.705 C.ar 0 **** 0
11585 C9 147.954 74.3559 52.1912 C.3 0 **** -0.106
11586 C10 149.161 76.3504 53.2957 C.ar 0 **** 0
11587 C11 150.375 76.9249 53.7285 C.ar 0 **** 0
11588 C12 151.553 76.1521 53.5396 C.ar 0 **** 0
11589 C13 151.534 74.8796 52.9579 C.ar 0 **** 0
11590 C14 152.809 74.105 52.779 C.3 0 **** -0.106
11591 C15 153.804 74.4257 53.8949 C.3 0 **** -0.106
11592 C16 154.115 75.8957 53.8201 C.3 0 **** -0.106
11593 C17 152.879 76.7496 54.0087 C.ar 0 **** 0
11594 C18 152.968 77.9901 54.5538 C.ar 0 **** 0
11595 C19 151.851 78.7606 54.7152 C.ar 0 **** 0
11596 C20 150.414 78.231 54.3296 C.ar 0 **** 0
11597 C21 149.138 78.8957 54.5291 C.ar 0 **** 0
11598 C22 147.991 78.2619 54.0391 C.ar 0 **** 0
11599 C23 147.973 77.0445 53.4532 C.ar 0 **** 0.042
11600 C24 151.99 80.1616 55.2924 C.3 0 **** -0.106
11601 C25 153.438 80.7168 55.4295 C.ar 0 **** 0
11602 C26 154.52 79.884 55.2813 C.ar 0 **** 0
11603 C27 154.373 78.4349 54.9497 C.3 0 **** -0.106
11604 C28 155.814 80.369 55.4564 C.ar 0 **** 0.042
11605 C29 156.065 81.6871 55.7969 C.ar 0 **** 0
11606 C30 154.961 82.5154 55.9308 C.ar 0 **** 0
11607 C31 153.66 82.0522 55.7553 C.ar 0 **** 0
11608 C32 155.112 84.0005 56.2982 C.ar 0 **** 0
11609 C33 156.563 84.4536 56.4897 C.3 0 **** -0.106
11610 C34 157.464 83.3364 57.0111 C.3 0 **** -0.106
11611 C35 157.47 82.2051 55.9855 C.3 0 **** -0.106
11612 C36 152.526 83.0433 55.9259 C.ar 0 **** -0.1268
11613 C37 152.792 84.3348 56.2553 C.ar 0 **** 0.0265
11614 C38 154.032 84.8091 56.4393 C.ar 0 **** -0.1268
11615 C39 146.703 78.9785 54.2093 C.3 0 **** -0.106
11616 C40 147.236 80.1609 54.952 C.ar 0 **** 0
11617 C41 148.619 80.1216 55.1335 C.ar 0 **** 0
11618 C42 149.164 81.1943 55.8705 C.ar 0 **** -0.1268
11619 C43 148.367 82.2556 56.3472 C.ar 0 **** 0
11620 C44 146.974 82.271 56.1261 C.ar 0 **** 0
11621 C45 146.41 81.1943 55.4225 C.ar 0 **** 0
11622 C46 145.016 81.1828 55.208 C.ar 0 **** -0.1268
11623 C47 144.191 82.2027 55.6528 C.ar 0 **** 0
11624 C48 144.757 83.2398 56.3631 C.ar 0 **** -0.1268
11625 C49 146.137 83.3056 56.6103 C.ar 0 **** 0
11626 C50 146.72 84.3661 57.326 C.ar 0 **** 0.042
11627 C51 148.081 84.3841 57.5515 C.ar 0 **** -0.1268
11628 C52 148.891 83.3526 57.0845 C.ar 0 **** -0.1268
11629 O53 148.126 69.8638 50.0586 O.3 0 **** -0.452
11630 C54 150.956 69.7536 50.3696 C.3 0 **** -0.159
11631 O55 146.806 76.523 53.0359 O.3 0 **** -0.452
11632 C56 142.714 82.0467 55.3691 C.3 0 **** -0.106
11633 C57 141.871 83.2579 55.771 C.3 0 **** -0.159
11634 O58 151.754 85.1741 56.4048 O.3 0 **** -0.4365
11635 O59 156.913 79.568 55.3089 O.3 0 **** -0.452
11636 O60 146.031 85.4068 57.8335 O.3 0 **** -0.452
11637 H61 146.892 72.0697 50.9523 H 0 **** 0.1268
11638 H62 151.831 71.9584 51.5181 H 0 **** 0.1268
11639 H63 147.218 74.1043 52.976 H 0 **** 0.053
11640 H64 147.44 74.8713 51.3587 H 0 **** 0.053
11641 H65 152.636 73.0331 52.8131 H 0 **** 0.053
11642 H66 153.283 74.3494 51.8026 H 0 **** 0.053
11643 H67 153.379 74.1422 54.8889 H 0 **** 0.053
11644 H68 154.744 73.8105 53.7722 H 0 **** 0.053
11645 H69 154.872 76.1238 54.5805 H 0 **** 0.053
11646 H70 154.573 76.1115 52.8388 H 0 **** 0.053
11647 H71 151.425 80.8601 54.6404 H 0 **** 0.053
11648 H72 155.028 78.2165 54.1006 H 0 **** 0.053
11649 H73 156.952 84.8161 55.5164 H 0 **** 0.053
11650 H74 156.554 85.3159 57.1708 H 0 **** 0.053
11651 H75 158.481 83.7169 57.1647 H 0 **** 0.053
11652 H76 157.104 82.9761 57.9853 H 0 **** 0.053
11653 H77 157.851 82.5702 55.022 H 0 **** 0.053
11654 H78 158.126 81.4046 56.3091 H 0 **** 0.053
11655 H79 151.526 82.691 55.764 H 0 **** 0.1268
11656 H80 154.215 85.8416 56.6928 H 0 **** 0.1268
11657 H81 146.247 79.2845 53.2547 H 0 **** 0.053
11658 H82 145.973 78.4262 54.8226 H 0 **** 0.053
11659 H83 150.202 81.2905 56.1511 H 0 **** 0.1268
11660 H84 144.554 80.3381 54.6629 H 0 **** 0.1268
11661 H85 144.101 84.0242 56.7329 H 0 **** 0.1268
11662 H86 148.559 85.2039 58.1105 H 0 **** 0.1268
11663 H87 149.995 83.3597 57.306 H 0 **** 0.1268
11664 H88 147.195 70.0371 50.0228 H 0 **** 0.41
11665 H89 150.398 68.8156 50.4718 H 0 **** 0.053
11666 H90 151.881 69.6401 50.9522 H 0 **** 0.053
11667 H91 151.226 69.8724 49.3078 H 0 **** 0.053
11668 H92 146.091 77.1176 53.2163 H 0 **** 0.41
11669 H93 142.544 81.826 54.3149 H 0 **** 0.053
11670 H94 140.798 83.1077 55.5402 H 0 **** 0.053
11671 H95 142.191 84.1668 55.2256 H 0 **** 0.053
11672 H96 141.936 83.4686 56.8554 H 0 **** 0.053
11673 H97 150.943 84.7612 56.1558 H 0 **** 0.41
11674 H98 156.649 78.6887 55.0912 H 0 **** 0.41
11675 H99 145.11 85.3106 57.6232 H 0 **** 0.41
11676 H100 151.585 80.116 56.3237 H 0 **** 0.053
11677 H101 154.684 77.8317 55.8106 H 0 **** 0.053
11678 H102 142.409 81.1745 55.9461 H 0 **** 0.053
11679 C1 163.507 44.5081 23.9118 C.ar 0 **** 0.042
11680 C2 164.029 43.4187 23.2399 C.ar 0 **** -0.1268
11681 C3 165.383 43.1299 23.3057 C.ar 0 **** 0
11682 C4 166.252 43.9292 24.049 C.ar 0 **** 0
11683 C5 165.712 45.0205 24.7357 C.ar 0 **** -0.1268
11684 C6 164.36 45.3253 24.6659 C.ar 0 **** 0
11685 C7 167.585 43.3637 23.9067 C.ar 0 **** 0
11686 C8 167.483 42.2424 23.1021 C.ar 0 **** 0
11687 C9 166.089 41.9875 22.6412 C.3 0 **** -0.106
11688 C10 168.614 41.4887 22.8109 C.ar 0 **** 0
11689 C11 169.875 41.8529 23.3293 C.ar 0 **** 0
11690 C12 169.921 43.0185 24.1424 C.ar 0 **** 0
11691 C13 168.785 43.7846 24.4246 C.ar 0 **** 0
11692 C14 168.888 45.0074 25.2924 C.3 0 **** -0.106
11693 C15 170.249 45.6828 25.1248 C.3 0 **** -0.106
11694 C16 171.303 44.6967 25.5495 C.3 0 **** -0.106
11695 C17 171.277 43.4377 24.7087 C.ar 0 **** 0
11696 C18 172.41 42.7207 24.4949 C.ar 0 **** 0
11697 C19 172.38 41.5808 23.7418 C.ar 0 **** 0
11698 C20 171.053 41.0774 23.0483 C.ar 0 **** 0
11699 C21 170.892 39.9453 22.1529 C.ar 0 **** 0
11700 C22 169.599 39.6433 21.7143 C.ar 0 **** 0
11701 C23 168.495 40.3665 22.0073 C.ar 0 **** 0.042
11702 C24 173.66 40.7791 23.5546 C.3 0 **** -0.106
11703 C25 174.87 41.1829 24.4462 C.ar 0 **** 0
11704 C26 174.849 42.3561 25.1594 C.ar 0 **** 0
11705 C27 173.671 43.2752 25.1505 C.3 0 **** -0.106
11706 C28 175.953 42.7439 25.9152 C.ar 0 **** 0.042
11707 C29 177.109 41.9845 25.9695 C.ar 0 **** 0
11708 C30 177.108 40.798 25.2525 C.ar 0 **** 0
11709 C31 176.014 40.3897 24.4949 C.ar 0 **** 0
11710 C32 178.33 39.8657 25.241 C.ar 0 **** 0
11711 C33 179.509 40.3681 26.0816 C.3 0 **** -0.106
11712 C34 179.582 41.8924 26.1395 C.3 0 **** -0.106
11713 C35 178.302 42.4116 26.7907 C.3 0 **** -0.106
11714 C36 176.119 39.0747 23.7495 C.ar 0 **** -0.1268
11715 C37 177.261 38.34 23.8186 C.ar 0 **** 0.0265
11716 C38 178.334 38.7098 24.5316 C.ar 0 **** -0.1268
11717 C39 169.447 38.4549 20.8391 C.3 0 **** -0.106
11718 C40 170.893 38.087 20.7551 C.ar 0 **** 0
11719 C41 171.719 38.9294 21.5017 C.ar 0 **** 0
11720 C42 173.099 38.6538 21.4167 C.ar 0 **** -0.1268
11721 C43 173.599 37.5704 20.6643 C.ar 0 **** 0
11722 C44 172.73 36.7283 19.9387 C.ar 0 **** 0
11723 C45 171.354 37.0079 19.9847 C.ar 0 **** 0
11724 C46 170.471 36.1976 19.2391 C.ar 0 **** -0.1268
11725 C47 170.907 35.1324 18.4663 C.ar 0 **** 0
11726 C48 172.265 34.8766 18.4315 C.ar 0 **** -0.1268
11727 C49 173.194 35.6484 19.1493 C.ar 0 **** 0
11728 C50 174.577 35.3965 19.1059 C.ar 0 **** 0.042
11729 C51 175.454 36.1968 19.8119 C.ar 0 **** -0.1268
11730 C52 174.985 37.2668 20.5694 C.ar 0 **** -0.1268
11731 O53 162.165 44.7972 23.851 O.3 0 **** -0.452
11732 C54 163.801 46.5177 25.4265 C.3 0 **** -0.159
11733 O55 167.302 39.9912 21.5149 O.3 0 **** -0.452
11734 C56 169.839 34.351 17.7082 C.3 0 **** -0.106
11735 C57 170.39 33.0931 17.0283 C.3 0 **** -0.159
11736 O58 177.311 37.1858 23.1335 O.3 0 **** -0.4365
11737 O59 175.962 43.9028 26.6429 O.3 0 **** -0.452
11738 O60 175.147 34.4016 18.3974 O.3 0 **** -0.452
11739 H61 163.383 42.7429 22.6337 H 0 **** 0.1268
11740 H62 166.303 45.6924 25.3721 H 0 **** 0.1268
11741 H63 165.968 42.0527 21.5447 H 0 **** 0.053
11742 H64 165.673 41.0279 22.9994 H 0 **** 0.053
11743 H65 168.137 45.7484 25.0329 H 0 **** 0.053
11744 H66 168.756 44.7398 26.364 H 0 **** 0.053
11745 H67 170.393 46.0126 24.067 H 0 **** 0.053
11746 H68 170.302 46.621 25.7523 H 0 **** 0.053
11747 H69 172.279 45.1923 25.4872 H 0 **** 0.053
11748 H70 171.142 44.4411 26.6117 H 0 **** 0.053
11749 H71 173.432 39.7128 23.7636 H 0 **** 0.053
11750 H72 173.417 43.5052 26.19 H 0 **** 0.053
11751 H73 179.407 39.9653 27.11 H 0 **** 0.053
11752 H74 180.426 39.9359 25.6593 H 0 **** 0.053
11753 H75 180.459 42.203 26.7215 H 0 **** 0.053
11754 H76 179.701 42.3092 25.1292 H 0 **** 0.053
11755 H77 178.203 42.0056 27.8065 H 0 **** 0.053
11756 H78 178.333 43.492 26.8766 H 0 **** 0.053
11757 H79 175.265 38.7484 23.1874 H 0 **** 0.1268
11758 H80 179.224 38.1028 24.5751 H 0 **** 0.1268
11759 H81 168.861 37.6453 21.302 H 0 **** 0.053
11760 H82 169.046 38.6963 19.8417 H 0 **** 0.053
11761 H83 173.879 39.2395 21.8813 H 0 **** 0.1268
11762 H84 169.386 36.4091 19.2648 H 0 **** 0.1268
11763 H85 172.613 34.0465 17.8218 H 0 **** 0.1268
11764 H86 176.542 36.0209 19.789 H 0 **** 0.1268
11765 H87 175.712 37.9361 21.1104 H 0 **** 0.1268
11766 H88 161.748 44.1461 23.3025 H 0 **** 0.41
11767 H89 162.964 46.9709 24.8827 H 0 **** 0.053
11768 H90 164.554 47.305 25.568 H 0 **** 0.053
11769 H91 163.431 46.2065 26.4167 H 0 **** 0.053
11770 H92 167.393 39.2137 20.9817 H 0 **** 0.41
11771 H93 169.042 34.0533 18.3974 H 0 **** 0.053
11772 H94 169.591 32.5423 16.4942 H 0 **** 0.053
11773 H95 170.835 32.3931 17.7609 H 0 **** 0.053
11774 H96 171.164 33.3395 16.2767 H 0 **** 0.053
11775 H97 176.473 36.9784 22.7516 H 0 **** 0.41
11776 H98 175.143 44.3591 26.5378 H 0 **** 0.41
11777 H99 174.472 33.9098 17.9473 H 0 **** 0.41
11778 H100 173.985 40.9491 22.5079 H 0 **** 0.053
11779 H101 173.938 44.2025 24.6303 H 0 **** 0.053
11780 H102 169.386 34.9943 16.9453 H 0 **** 0.053
11781 C 109.814 30.2405 80.0668 C.3 0 **** 0.054
11782 C 110.772 29.5763 79.0357 C.3 0 **** -0.106
11783 C 112.244 30.0092 79.2795 C.3 0 **** -0.053
11784 C 112.257 31.5127 79.647 C.3 0 **** -0.053
11785 C 111.373 31.7628 80.9055 C.3 0 **** 0.054
11786 O 110.526 30.6654 81.2172 O.3 0 **** -0.32
11787 C 111.793 32.3832 78.442 C.3 0 **** -0.053
11788 C 112.293 31.8184 77.0577 C.3 0 **** 0.107
11789 C 113.514 30.9274 77.2548 C.3 0 **** -0.106
11790 C 113.187 29.6814 78.0944 C.3 0 **** -0.106
11791 O 112.657 32.8263 76.108 O.3 0 **** -0.32
11792 C 111.717 33.889 76.1211 C.3 0 **** 0.107
11793 C 112 34.7375 77.3895 C.3 0 **** -0.053
11794 C 112.242 33.8459 78.6346 C.3 0 **** -0.106
11795 C 110.981 35.8077 77.6865 C.2 0 **** 0
11796 C 109.542 35.4737 77.3175 C.3 0 **** 0
11797 C 109.359 34.6201 76.0632 C.3 0 **** 0
11798 C 110.279 33.4137 75.921 C.3 0 **** -0.053
11799 C 107.917 34.2915 75.7336 C.3 0 **** 0
11800 C 107.078 35.5623 75.6526 C.3 0 **** 0
11801 C 107.236 36.3549 77.0039 C.3 0 **** 0.16
11802 C 108.674 36.7157 77.3054 C.3 0 **** 0
11803 C 108.836 37.6398 78.5433 C.3 0 **** -0.106
11804 C 110.268 38.1422 78.4464 C.3 0 **** -0.106
11805 C 111.275 37.0226 78.2072 C.2 0 **** -0.1268
11806 O 106.313 37.4184 77.3251 O.3 0 **** -0.32
11807 C 105.382 37.6531 76.2906 C.3 0 **** 0.16
11808 C 104.665 36.393 75.7016 C.3 0 **** 0
11809 C 105.596 35.1984 75.3731 C.3 0 **** 0
11810 C 110.025 32.7534 74.5909 C.2 0 **** 0
11811 C 108.656 32.1362 74.5244 C.3 0 **** -0.053
11812 C 107.722 33.3802 74.5092 C.3 0 **** 0
11813 C 108.322 31.3057 73.3053 C.2 0 **** 0
11814 C 109.108 31.4425 72.2056 C.2 0 **** 0
11815 C 110.399 32.2476 72.1849 C.3 0 **** -0.106
11816 C 110.823 32.8112 73.5311 C.2 0 **** -0.1268
11817 C 108.852 30.6224 70.9624 C.3 0 **** -0.106
11818 C 107.353 30.4179 70.7948 C.3 0 **** -0.106
11819 C 106.76 29.9707 72.1195 C.2 0 **** 0
11820 C 107.275 30.4188 73.3098 C.2 0 **** 0
11821 C 106.619 29.9964 74.6104 C.3 0 **** -0.106
11822 C 105.706 28.7863 74.4726 C.3 0 **** -0.053
11823 C 104.731 29.0125 73.3049 C.3 0 **** -0.106
11824 C 105.516 29.1169 71.9932 C.3 0 **** -0.106
11825 C 105.485 34.4376 74.0455 C.3 0 **** 0.147
11826 C 106.229 33.1164 74.1759 C.3 0 **** -0.053
11827 C 103.608 36.6944 74.6335 C.3 0 **** 0
11828 C 102.907 35.4831 74.0046 C.3 0 **** 0.147
11829 S 103.816 34.0674 73.4322 S.3 0 **** -0.294
11830 C 101.789 35.817 73.0557 C.3 0 **** -0.053
11831 C 100.796 36.7454 73.7678 C.3 0 **** 0
11832 C 101.497 38.0477 74.3155 C.3 0 **** 0
11833 C 102.603 37.6632 75.3186 C.3 0 **** 0
11834 C 100.449 38.9164 74.9971 C.3 0 **** 0
11835 C 99.3707 39.2844 73.9984 C.3 0 **** 0
11836 C 98.6502 38.0251 73.357 C.3 0 **** 0
11837 C 99.7315 37.1037 72.6829 C.3 0 **** -0.053
11838 C 97.6718 38.5561 72.2722 C.3 0 **** 0
11839 C 96.566 39.2899 72.9989 C.3 0 **** 0.16
11840 C 97.0835 40.427 73.885 C.3 0 **** 0
11841 C 98.4654 40.3882 74.4707 C.3 0 **** 0
11842 C 103.274 38.8727 76.0234 C.3 0 **** 0
11843 C 104.352 38.473 77.0253 C.3 0 **** -0.053
11844 C 100.952 40.0373 75.9335 C.3 0 **** 0
11845 C 102.438 40.1551 76.2836 C.3 0 **** 0
11846 C 98.7569 41.1904 75.7391 C.3 0 **** 0
11847 C 100.275 41.4094 75.8838 C.3 0 **** 0
11848 C 96.2224 41.6633 74.1462 C.3 0 **** 0
11849 C 96.6212 42.3885 75.4707 C.3 0 **** 0
11850 C 98.135 42.6078 75.6478 C.3 0 **** 0
11851 O 95.5751 39.6426 72.0582 O.3 0 **** -0.32
11852 C 94.7606 38.4716 72.0205 C.3 0 **** 0.107
11853 C 95.6338 37.2122 71.7146 C.3 0 **** -0.053
11854 C 97.0141 37.6354 71.2162 C.3 0 **** 0.107
11855 C 94.9365 36.306 70.6894 C.3 0 **** -0.106
11856 C 93.4253 36.2488 70.979 C.3 0 **** -0.106
11857 C 92.7655 37.6039 70.662 C.3 0 **** 0.134
11858 C 93.7133 38.7928 70.9751 C.3 0 **** -0.053
11859 C 92.9374 40.0703 71.381 C.3 0 **** -0.106
11860 C 91.6347 40.1543 70.5961 C.3 0 **** -0.106
11861 C 90.741 38.9077 70.8764 C.3 0 **** 0.081
11862 N 91.4821 37.7295 71.3231 N.3 0 **** -0.727
11863 C 102.685 40.9819 77.5739 C.3 0 **** 0.16
11864 C 102.053 42.3547 77.407 C.3 0 **** 0.16
11865 C 100.57 42.1717 77.2538 C.3 0 **** 0
11866 O 102.319 43.2604 78.4564 O.3 0 **** -0.32
11867 C 103.716 43.281 78.7299 C.3 0 **** 0.107
11868 C 104.163 41.9011 79.104 C.3 0 **** 0.107
11869 O 104.051 41.0949 77.9432 O.3 0 **** -0.32
11870 C 103.347 41.3191 80.2878 C.3 0 **** -0.106
11871 C 102.806 42.4382 81.2233 C.3 0 **** -0.106
11872 C 103.777 43.6354 81.2347 C.3 0 **** -0.106
11873 C 103.913 44.2915 79.8315 C.3 0 **** -0.106
11874 C 98.4078 43.4261 76.9876 C.3 0 **** 0
11875 C 99.9506 43.6044 77.1564 C.3 0 **** -0.053
11876 C 95.9617 43.7775 75.4821 C.3 0 **** 0
11877 C 96.3206 44.5889 76.7433 C.3 0 **** 0.16
11878 C 97.7672 44.8018 76.9584 C.3 0 **** -0.053
11879 C 94.407 43.5144 75.3926 C.3 0 **** 0
11880 C 94.0536 42.7306 74.063 C.3 0 **** 0
11881 C 94.7027 41.3433 74.1855 C.3 0 **** -0.053
11882 O 95.6834 45.8169 76.8756 O.3 0 **** -0.32
11883 C 94.2965 45.6557 76.6004 C.3 0 **** 0.16
11884 C 93.8788 44.9383 75.2483 C.3 0 **** 0
11885 C 92.5353 42.5826 73.7651 C.3 0 **** -0.053
11886 C 91.8581 43.944 73.9086 C.3 0 **** -0.053
11887 C 92.3559 44.7919 75.1388 C.3 0 **** 0
11888 C 90.4056 43.7733 74.1961 C.3 0 **** -0.053
11889 C 89.8292 42.6406 73.3885 C.3 0 **** -0.106
11890 C 90.4153 41.305 73.9299 C.3 0 **** -0.106
11891 C 91.7931 41.5109 74.5923 C.3 0 **** -0.106
11892 C 91.7809 46.1862 75.057 C.3 0 **** 0
11893 C 92.2486 47.1161 76.2156 C.3 0 **** 0
11894 C 93.7109 47.0401 76.647 C.3 0 **** 0
11895 C 89.8355 45.1406 73.8279 C.3 0 **** 0
11896 C 90.2784 46.1711 74.8825 C.3 0 **** 0
11897 C 105.015 28.4288 75.8141 C.3 0 **** -0.053
11898 C 103.897 29.4095 76.1967 C.3 0 **** -0.159
11899 C 104.476 26.9938 75.7981 C.3 0 **** -0.159
11900 O 97.781 36.5027 70.831 O.3 0 **** -0.57
11901 C 94.4082 48.1922 77.4242 C.3 0 **** -0.053
11902 C 93.4775 49.2644 77.9995 C.3 0 **** -0.053
11903 C 92.3816 49.6205 76.9788 C.3 0 **** 0
11904 C 91.5119 48.4035 76.5355 C.3 0 **** 0
11905 C 90.2731 48.603 75.6801 C.3 0 **** 0
11906 C 89.6329 49.9595 75.7194 C.3 0 **** 0
11907 C 90.2471 51.0098 76.6786 C.3 0 **** 0
11908 C 91.4715 50.7005 77.5731 C.3 0 **** -0.053
11909 C 89.4995 52.3157 76.9103 C.3 0 **** -0.053
11910 C 88.0668 52.446 76.3486 C.3 0 **** -0.053
11911 C 87.6354 51.4659 75.2141 C.3 0 **** 0
11912 C 88.1121 50.0059 75.4319 C.3 0 **** 0
11913 C 87.7475 49.0769 74.2088 C.3 0 **** 0
11914 C 88.2487 47.6064 74.4707 C.3 0 **** 0
11915 C 89.7811 47.5854 74.6447 C.3 0 **** 0
11916 C 86.2002 49.1034 73.9971 C.3 0 **** 0
11917 C 85.7537 50.5929 73.7517 C.3 0 **** -0.053
11918 C 86.1219 51.5075 74.936 C.3 0 **** -0.053
11919 C 88.3037 45.1716 73.6475 C.3 0 **** -0.053
11920 C 87.9262 46.6675 73.2396 C.3 0 **** 0
11921 C 85.8169 48.1936 72.7428 C.3 0 **** 0.02
11922 C 86.3905 46.7399 72.8867 C.3 0 **** 0
11923 C 86.0235 45.6898 71.8114 C.3 0 **** -0.106
11924 C 85.1005 46.3066 70.7986 C.3 0 **** -0.106
11925 C 83.9487 47.016 71.5014 C.3 0 **** -0.086
11926 C 84.3217 48.0923 72.4532 C.2 0 **** 0.379
11927 O 83.471 48.857 72.8745 O.2 0 **** -0.419
11928 H 109.053 29.5278 80.4119 H 0 **** 0.053
11929 H 109.269 31.0794 79.6072 H 0 **** 0.053
11930 H 110.714 28.4708 79.0767 H 0 **** 0.053
11931 H 110.461 29.8409 78.008 H 0 **** 0.053
11932 H 112.589 29.4565 80.1683 H 0 **** 0.053
11933 H 113.303 31.8018 79.8614 H 0 **** 0.053
11934 H 110.778 32.6866 80.7972 H 0 **** 0.053
11935 H 112.006 31.9059 81.7878 H 0 **** 0.053
11936 H 110.69 32.3737 78.4646 H 0 **** 0.053
11937 H 111.503 31.1841 76.6157 H 0 **** 0.053
11938 H 114.297 31.5366 77.7449 H 0 **** 0.053
11939 H 113.912 30.6497 76.2659 H 0 **** 0.053
11940 H 114.121 29.2377 78.464 H 0 **** 0.053
11941 H 112.719 28.9259 77.4475 H 0 **** 0.053
11942 H 111.975 34.5327 75.2779 H 0 **** 0.053
11943 H 112.937 35.2729 77.2003 H 0 **** 0.053
11944 H 111.79 34.2595 79.5631 H 0 **** 0.053
11945 H 113.331 33.8232 78.812 H 0 **** 0.053
11946 H 109.981 32.6822 76.6875 H 0 **** 0.053
11947 H 108.112 38.477 78.488 H 0 **** 0.053
11948 H 108.629 37.0917 79.486 H 0 **** 0.053
11949 H 110.538 38.7222 79.3324 H 0 **** 0.053
11950 H 110.325 38.8231 77.577 H 0 **** 0.053
11951 H 112.29 37.2669 78.5047 H 0 **** 0.1268
11952 H 108.475 31.555 75.4607 H 0 **** 0.053
11953 H 110.319 33.091 71.4358 H 0 **** 0.053
11954 H 111.232 31.5851 71.814 H 0 **** 0.053
11955 H 111.798 33.2883 73.5667 H 0 **** 0.1268
11956 H 109.301 31.0941 70.0616 H 0 **** 0.053
11957 H 109.355 29.6481 71.0993 H 0 **** 0.053
11958 H 107.137 29.6901 69.9879 H 0 **** 0.053
11959 H 106.876 31.3714 70.4982 H 0 **** 0.053
11960 H 107.408 29.7487 75.336 H 0 **** 0.053
11961 H 106.049 30.8363 75.0531 H 0 **** 0.053
11962 H 106.351 27.924 74.2053 H 0 **** 0.053
11963 H 104.17 29.9456 73.4737 H 0 **** 0.053
11964 H 103.989 28.2049 73.2303 H 0 **** 0.053
11965 H 104.854 29.5069 71.1852 H 0 **** 0.053
11966 H 105.828 28.0965 71.6753 H 0 **** 0.053
11967 H 106.086 32.5144 73.2136 H 0 **** 0.053
11968 H 101.267 34.9329 72.5804 H 0 **** 0.053
11969 H 99.244 36.117 72.3996 H 0 **** 0.053
11970 H 104.893 39.3418 77.5038 H 0 **** 0.053
11971 H 94.268 38.3589 73.001 H 0 **** 0.053
11972 H 95.7466 36.61 72.6397 H 0 **** 0.053
11973 H 96.879 38.2781 70.3574 H 0 **** 0.053
11974 H 95.1001 36.7091 69.6662 H 0 **** 0.053
11975 H 95.3984 35.2921 70.7012 H 0 **** 0.053
11976 H 93.3042 36.0068 72.0479 H 0 **** 0.053
11977 H 92.9308 35.444 70.4127 H 0 **** 0.053
11978 H 92.5766 37.6231 69.5764 H 0 **** 0.053
11979 H 94.2909 39.0241 70.0565 H 0 **** 0.053
11980 H 92.6779 39.9874 72.4467 H 0 **** 0.053
11981 H 93.5679 40.9684 71.2567 H 0 **** 0.053
11982 H 91.8962 40.2112 69.5238 H 0 **** 0.053
11983 H 91.0883 41.0859 70.8225 H 0 **** 0.053
11984 H 90.1886 38.6411 69.9612 H 0 **** 0.053
11985 H 89.9707 39.1522 71.6284 H 0 **** 0.053
11986 H 91.6297 37.7673 72.312 H 0 **** 0.353
11987 H 104.226 43.573 77.8123 H 0 **** 0.053
11988 H 105.211 41.9234 79.3912 H 0 **** 0.053
11989 H 102.484 40.7134 79.9397 H 0 **** 0.053
11990 H 103.96 40.6072 80.8805 H 0 **** 0.053
11991 H 102.64 42.0489 82.2482 H 0 **** 0.053
11992 H 101.813 42.777 80.8643 H 0 **** 0.053
11993 H 104.768 43.2576 81.5437 H 0 **** 0.053
11994 H 103.47 44.3878 81.9836 H 0 **** 0.053
11995 H 104.873 44.8339 79.7519 H 0 **** 0.053
11996 H 103.11 45.0545 79.71 H 0 **** 0.053
11997 H 100.14 44.1943 78.1182 H 0 **** 0.053
11998 H 98.03 45.3833 77.8665 H 0 **** 0.053
11999 H 94.3821 40.7484 73.2841 H 0 **** 0.053
12000 H 92.5007 42.277 72.7283 H 0 **** 0.053
12001 H 92.0359 44.516 72.9769 H 0 **** 0.053
12002 H 90.2119 43.5715 75.2711 H 0 **** 0.053
12003 H 90.109 42.7873 72.3281 H 0 **** 0.053
12004 H 88.7195 42.5807 73.42 H 0 **** 0.053
12005 H 90.5185 40.5785 73.0991 H 0 **** 0.053
12006 H 89.7058 40.8496 74.6472 H 0 **** 0.053
12007 H 92.339 40.5512 74.6391 H 0 **** 0.053
12008 H 91.6837 41.861 75.6269 H 0 **** 0.053
12009 H 105.79 28.4764 76.6034 H 0 **** 0.053
12010 H 103.513 29.1911 77.2058 H 0 **** 0.053
12011 H 103.052 29.3338 75.4927 H 0 **** 0.053
12012 H 104.24 30.4568 76.1935 H 0 **** 0.053
12013 H 105.277 26.2689 75.5817 H 0 **** 0.053
12014 H 103.697 26.8739 75.0287 H 0 **** 0.053
12015 H 104.035 26.7247 76.7702 H 0 **** 0.053
12016 H 98.6207 36.8494 70.5354 H 0 **** 0.41
12017 H 95.3142 47.9084 78.0303 H 0 **** 0.053
12018 H 94.0528 50.166 78.3492 H 0 **** 0.053
12019 H 92.0139 51.6259 77.9099 H 0 **** 0.053
12020 H 89.9625 53.118 77.5391 H 0 **** 0.053
12021 H 87.6268 53.4743 76.3384 H 0 **** 0.053
12022 H 84.6559 50.6854 73.5339 H 0 **** 0.053
12023 H 85.7603 52.5547 74.8141 H 0 **** 0.053
12024 H 87.9666 44.4413 72.826 H 0 **** 0.053
12025 H 86.9249 45.2731 71.3286 H 0 **** 0.053
12026 H 85.5481 44.8922 72.3801 H 0 **** 0.053
12027 H 84.7151 45.5392 70.1296 H 0 **** 0.053
12028 H 85.6728 47.0223 70.1741 H 0 **** 0.053
12029 H 83.3815 46.3211 72.1259 H 0 **** 0.053
12030 H 83.2645 47.5513 70.8467 H 0 **** 0.053
12031 C 192.79 68.2 43.3047 C.3 0 **** 0.054
12032 C 193.12 68.4315 44.8074 C.3 0 **** -0.106
12033 C 193.851 67.2023 45.4155 C.3 0 **** -0.053
12034 C 193.201 65.9172 44.8479 C.3 0 **** -0.053
12035 C 193.285 65.9187 43.2918 C.3 0 **** 0.054
12036 O 193.619 67.1903 42.754 O.3 0 **** -0.32
12037 C 191.731 65.7738 45.3399 C.3 0 **** -0.053
12038 C 191.537 66.2677 46.8243 C.3 0 **** 0.107
12039 C 192.864 66.2401 47.5729 C.3 0 **** -0.106
12040 C 193.888 67.2123 46.9641 C.3 0 **** -0.106
12041 O 190.607 65.4898 47.5863 O.3 0 **** -0.32
12042 C 189.463 65.1737 46.8087 C.3 0 **** 0.107
12043 C 189.872 64.0417 45.8288 C.3 0 **** -0.053
12044 C 191.251 64.3174 45.1765 C.3 0 **** -0.106
12045 C 188.843 63.6968 44.7823 C.2 0 **** 0
12046 C 188.002 64.8584 44.2724 C.3 0 **** 0
12047 C 187.661 65.935 45.3022 C.3 0 **** 0
12048 C 188.802 66.4065 46.1956 C.3 0 **** -0.053
12049 C 186.837 67.0852 44.7583 C.3 0 **** 0
12050 C 185.576 66.5698 44.0745 C.3 0 **** 0
12051 C 185.994 65.5328 42.9659 C.3 0 **** 0.16
12052 C 186.78 64.3663 43.5229 C.3 0 **** 0
12053 C 187.058 63.2502 42.4791 C.3 0 **** -0.106
12054 C 187.527 62.069 43.3153 C.3 0 **** -0.106
12055 C 188.611 62.4454 44.32 C.2 0 **** -0.1268
12056 O 185.038 65.1342 41.9586 O.3 0 **** -0.32
12057 C 183.769 65.7173 42.1606 C.3 0 **** 0.16
12058 C 183.747 67.2583 42.4323 C.3 0 **** 0
12059 C 184.778 67.7582 43.4751 C.3 0 **** 0
12060 C 188.265 67.3876 47.205 C.2 0 **** 0
12061 C 187.803 68.6624 46.5566 C.3 0 **** -0.053
12062 C 186.541 68.2063 45.7698 C.3 0 **** 0
12063 C 187.384 69.7973 47.4643 C.2 0 **** 0
12064 C 187.112 69.5069 48.7638 C.2 0 **** 0
12065 C 187.37 68.1476 49.3974 C.3 0 **** -0.106
12066 C 188.07 67.1435 48.4959 C.2 0 **** -0.1268
12067 C 186.717 70.5949 49.7354 C.3 0 **** -0.106
12068 C 185.884 71.6398 49.0082 C.3 0 **** -0.106
12069 C 186.576 72.0141 47.7092 C.2 0 **** 0
12070 C 187.303 71.0873 47.0057 C.2 0 **** 0
12071 C 187.931 71.4835 45.6826 C.3 0 **** -0.106
12072 C 188.031 72.9881 45.4768 C.3 0 **** -0.053
12073 C 186.664 73.6343 45.7575 C.3 0 **** -0.106
12074 C 186.287 73.4201 47.2277 C.3 0 **** -0.106
12075 C 184.383 68.7374 44.5879 C.3 0 **** 0.147
12076 C 185.648 69.3346 45.186 C.3 0 **** -0.053
12077 C 182.347 67.8676 42.5721 C.3 0 **** 0
12078 C 182.283 69.3699 42.8751 C.3 0 **** 0.147
12079 S 183.287 70.115 44.1375 S.3 0 **** -0.294
12080 C 180.9 69.9589 42.8802 C.3 0 **** -0.053
12081 C 180.21 69.6138 41.5533 C.3 0 **** 0
12082 C 180.174 68.0586 41.2954 C.3 0 **** 0
12083 C 181.612 67.5028 41.2519 C.3 0 **** 0
12084 C 179.471 67.7984 39.9713 C.3 0 **** 0
12085 C 178.061 68.3504 40.0315 C.3 0 **** 0
12086 C 178.006 69.9052 40.3418 C.3 0 **** 0
12087 C 178.763 70.1861 41.6906 C.3 0 **** -0.053
12088 C 176.508 70.2919 40.4975 C.3 0 **** 0
12089 C 175.876 70.1609 39.1292 C.3 0 **** 0.16
12090 C 176.028 68.7593 38.5308 C.3 0 **** 0
12091 C 177.18 67.8737 38.9098 C.3 0 **** 0
12092 C 181.704 66.0008 40.8718 C.3 0 **** 0
12093 C 183.135 65.4731 40.8153 C.3 0 **** -0.053
12094 C 179.653 66.4059 39.3281 C.3 0 **** 0
12095 C 180.636 65.394 39.922 C.3 0 **** 0
12096 C 177.62 66.774 37.9433 C.3 0 **** 0
12097 C 178.443 65.7123 38.6968 C.3 0 **** 0
12098 C 174.973 68.2027 37.5742 C.3 0 **** 0
12099 C 175.552 67.0903 36.6431 C.3 0 **** 0
12100 C 176.391 66.0229 37.3691 C.3 0 **** 0
12101 O 174.558 70.6618 39.1998 O.3 0 **** -0.32
12102 C 174.75 72.0565 38.9673 C.3 0 **** 0.107
12103 C 175.8 72.6351 39.9705 C.3 0 **** -0.053
12104 C 176.051 71.6413 41.1025 C.3 0 **** 0.107
12105 C 175.33 73.988 40.525 C.3 0 **** -0.106
12106 C 174.67 74.815 39.4064 C.3 0 **** -0.106
12107 C 173.324 74.1881 38.997 C.3 0 **** 0.134
12108 C 173.358 72.639 39.0917 C.3 0 **** -0.053
12109 C 172.412 71.9676 38.0656 C.3 0 **** -0.106
12110 C 171.163 72.82 37.8802 C.3 0 **** -0.106
12111 C 171.539 74.2438 37.3675 C.3 0 **** 0.081
12112 N 172.904 74.6541 37.6906 N.3 0 **** -0.727
12113 C 181.05 64.2944 38.9074 C.3 0 **** 0.16
12114 C 179.797 63.6024 38.3943 C.3 0 **** 0.16
12115 C 178.968 64.618 37.6613 C.3 0 **** 0
12116 O 180.035 62.4866 37.5633 O.3 0 **** -0.32
12117 C 180.979 61.6196 38.1825 C.3 0 **** 0.107
12118 C 182.251 62.3726 38.4247 C.3 0 **** 0.107
12119 O 181.978 63.349 39.4157 O.3 0 **** -0.32
12120 C 182.813 63.0119 37.1283 C.3 0 **** -0.106
12121 C 182.401 62.2087 35.8613 C.3 0 **** -0.106
12122 C 182.268 60.7112 36.2031 C.3 0 **** -0.106
12123 C 181.148 60.4477 37.2488 C.3 0 **** -0.106
12124 C 176.853 64.904 36.3327 C.3 0 **** 0
12125 C 177.728 63.8548 37.0904 C.3 0 **** -0.053
12126 C 174.378 66.3586 35.972 C.3 0 **** 0
12127 C 174.847 65.2154 35.0496 C.3 0 **** 0.16
12128 C 175.674 64.1819 35.707 C.3 0 **** -0.053
12129 C 173.591 67.463 35.1619 C.3 0 **** 0
12130 C 173.07 68.5975 36.1353 C.3 0 **** 0
12131 C 174.315 69.3019 36.6958 C.3 0 **** -0.053
12132 O 173.849 64.57 34.329 O.3 0 **** -0.32
12133 C 172.991 65.5432 33.7439 C.3 0 **** 0.16
12134 C 172.381 66.6666 34.6836 C.3 0 **** 0
12135 C 172.116 69.6395 35.4868 C.3 0 **** -0.053
12136 C 171.025 68.9083 34.7078 C.3 0 **** -0.053
12137 C 171.534 67.6654 33.8856 C.3 0 **** 0
12138 C 170.462 69.7928 33.6478 C.3 0 **** -0.053
12139 C 170.32 71.2055 34.1491 C.3 0 **** -0.106
12140 C 171.743 71.8053 34.3361 C.3 0 **** -0.106
12141 C 172.795 70.7102 34.606 C.3 0 **** -0.106
12142 C 170.351 66.904 33.3365 C.3 0 **** 0
12143 C 170.753 65.6299 32.5362 C.3 0 **** 0
12144 C 171.883 64.7652 33.0905 C.3 0 **** 0
12145 C 169.131 69.1179 33.3295 C.3 0 **** 0
12146 C 169.401 67.8027 32.5759 C.3 0 **** 0
12147 C 188.626 73.3422 44.0891 C.3 0 **** -0.053
12148 C 187.643 73.1041 42.9334 C.3 0 **** -0.159
12149 C 189.14 74.7861 44.0552 C.3 0 **** -0.159
12150 O 176.921 72.1981 42.0793 O.3 0 **** -0.57
12151 C 172.066 63.2763 32.6814 C.3 0 **** -0.053
12152 C 171.249 62.8146 31.4706 C.3 0 **** -0.053
12153 C 169.823 63.3908 31.5397 C.3 0 **** 0
12154 C 169.774 64.9491 31.5986 C.3 0 **** 0
12155 C 168.453 65.6907 31.484 C.3 0 **** 0
12156 C 167.326 64.9673 30.8088 C.3 0 **** 0
12157 C 167.626 63.5625 30.2283 C.3 0 **** 0
12158 C 169.024 62.9068 30.3249 C.3 0 **** -0.053
12159 C 166.578 62.894 29.3493 C.3 0 **** -0.053
12160 C 165.359 63.7304 28.9028 C.3 0 **** -0.053
12161 C 165.019 65.0176 29.7162 C.3 0 **** 0
12162 C 166.264 65.8542 30.1135 C.3 0 **** 0
12163 C 165.882 67.0847 31.0255 C.3 0 **** 0
12164 C 167.172 67.9054 31.405 C.3 0 **** 0
12165 C 168.159 67.0186 32.1908 C.3 0 **** 0
12166 C 164.861 67.9846 30.259 C.3 0 **** 0
12167 C 163.6 67.1142 29.8956 C.3 0 **** -0.053
12168 C 163.97 65.9022 29.0189 C.3 0 **** -0.053
12169 C 168.134 69.998 32.5471 C.3 0 **** -0.053
12170 C 166.815 69.1221 32.3503 C.3 0 **** 0
12171 C 164.439 69.2177 31.1806 C.3 0 **** 0.02
12172 C 165.692 70.0124 31.6917 C.3 0 **** 0
12173 C 165.464 71.3052 32.5106 C.3 0 **** -0.106
12174 C 163.991 71.5758 32.6272 C.3 0 **** -0.106
12175 C 163.332 71.4956 31.2547 C.3 0 **** -0.086
12176 C 163.476 70.2078 30.5306 C.2 0 **** 0.379
12177 O 162.794 69.9815 29.5456 O.2 0 **** -0.419
12178 H 192.969 69.1112 42.7181 H 0 **** 0.053
12179 H 191.725 67.9515 43.1742 H 0 **** 0.053
12180 H 193.752 69.3298 44.9541 H 0 **** 0.053
12181 H 192.191 68.6402 45.3697 H 0 **** 0.053
12182 H 194.886 67.2354 45.0377 H 0 **** 0.053
12183 H 193.755 65.0494 45.2513 H 0 **** 0.053
12184 H 192.348 65.547 42.8423 H 0 **** 0.053
12185 H 194.078 65.2401 42.9575 H 0 **** 0.053
12186 H 191.12 66.397 44.6638 H 0 **** 0.053
12187 H 191.196 67.3195 46.8173 H 0 **** 0.053
12188 H 193.243 65.2011 47.5432 H 0 **** 0.053
12189 H 192.676 66.4703 48.6336 H 0 **** 0.053
12190 H 194.893 66.9502 47.3217 H 0 **** 0.053
12191 H 193.682 68.2271 47.333 H 0 **** 0.053
12192 H 188.747 64.718 47.4954 H 0 **** 0.053
12193 H 189.986 63.1352 46.4338 H 0 **** 0.053
12194 H 191.295 64.0239 44.1048 H 0 **** 0.053
12195 H 191.989 63.6805 45.6951 H 0 **** 0.053
12196 H 189.502 66.9721 45.5622 H 0 **** 0.053
12197 H 186.128 63.0076 41.9274 H 0 **** 0.053
12198 H 187.807 63.5775 41.7279 H 0 **** 0.053
12199 H 187.861 61.2484 42.6755 H 0 **** 0.053
12200 H 186.659 61.7032 43.8942 H 0 **** 0.053
12201 H 189.222 61.6107 44.6486 H 0 **** 0.1268
12202 H 188.582 69.0031 45.832 H 0 **** 0.053
12203 H 186.4 67.7019 49.7698 H 0 **** 0.053
12204 H 188.013 68.2914 50.3118 H 0 **** 0.053
12205 H 188.371 66.2088 48.9598 H 0 **** 0.1268
12206 H 186.176 70.1817 50.6139 H 0 **** 0.053
12207 H 187.648 71.0513 50.1172 H 0 **** 0.053
12208 H 185.712 72.5292 49.6464 H 0 **** 0.053
12209 H 184.886 71.2236 48.7692 H 0 **** 0.053
12210 H 188.947 71.064 45.6382 H 0 **** 0.053
12211 H 187.377 71.034 44.8355 H 0 **** 0.053
12212 H 188.743 73.3714 46.2368 H 0 **** 0.053
12213 H 185.902 73.1709 45.1107 H 0 **** 0.053
12214 H 186.665 74.7092 45.5269 H 0 **** 0.053
12215 H 185.213 73.6751 47.3846 H 0 **** 0.053
12216 H 186.871 74.128 47.8581 H 0 **** 0.053
12217 H 185.355 70.1199 45.9646 H 0 **** 0.053
12218 H 180.837 71.0654 43.1073 H 0 **** 0.053
12219 H 178.892 71.309 41.8092 H 0 **** 0.053
12220 H 183.218 64.3677 40.5991 H 0 **** 0.053
12221 H 175.106 72.1908 37.9318 H 0 **** 0.053
12222 H 176.752 72.8296 39.4345 H 0 **** 0.053
12223 H 175.102 71.4116 41.5657 H 0 **** 0.053
12224 H 174.594 73.819 41.3409 H 0 **** 0.053
12225 H 176.187 74.5284 40.9875 H 0 **** 0.053
12226 H 175.363 74.8218 38.5494 H 0 **** 0.053
12227 H 174.524 75.8648 39.7059 H 0 **** 0.053
12228 H 172.573 74.5363 39.7245 H 0 **** 0.053
12229 H 173.019 72.3483 40.1072 H 0 **** 0.053
12230 H 172.933 71.927 37.0975 H 0 **** 0.053
12231 H 172.179 70.931 38.3665 H 0 **** 0.053
12232 H 170.655 72.8817 38.8596 H 0 **** 0.053
12233 H 170.444 72.336 37.1976 H 0 **** 0.053
12234 H 170.845 74.9825 37.8001 H 0 **** 0.053
12235 H 171.396 74.3055 36.2746 H 0 **** 0.053
12236 H 173.543 74.3071 37.0028 H 0 **** 0.353
12237 H 180.567 61.3184 39.1452 H 0 **** 0.053
12238 H 183.003 61.6972 38.8242 H 0 **** 0.053
12239 H 182.469 64.0599 36.9991 H 0 **** 0.053
12240 H 183.92 63.0908 37.1711 H 0 **** 0.053
12241 H 183.128 62.3679 35.0398 H 0 **** 0.053
12242 H 181.429 62.5839 35.4812 H 0 **** 0.053
12243 H 183.231 60.3802 36.6282 H 0 **** 0.053
12244 H 182.093 60.1109 35.2918 H 0 **** 0.053
12245 H 181.335 59.4966 37.781 H 0 **** 0.053
12246 H 180.177 60.3239 36.7159 H 0 **** 0.053
12247 H 178.055 63.053 36.3424 H 0 **** 0.053
12248 H 176.016 63.3583 35.0461 H 0 **** 0.053
12249 H 173.952 70.167 37.3195 H 0 **** 0.053
12250 H 171.669 70.1465 36.3314 H 0 **** 0.053
12251 H 170.252 68.5759 35.4285 H 0 **** 0.053
12252 H 171.095 69.8071 32.7348 H 0 **** 0.053
12253 H 169.777 71.183 35.1129 H 0 **** 0.053
12254 H 169.74 71.87 33.4721 H 0 **** 0.053
12255 H 171.739 72.5194 35.184 H 0 **** 0.053
12256 H 172.02 72.3954 33.4415 H 0 **** 0.053
12257 H 173.69 71.152 35.0811 H 0 **** 0.053
12258 H 173.133 70.2494 33.6684 H 0 **** 0.053
12259 H 189.499 72.682 43.9295 H 0 **** 0.053
12260 H 188.138 73.2544 41.9607 H 0 **** 0.053
12261 H 186.795 73.8062 42.9898 H 0 **** 0.053
12262 H 187.229 72.0827 42.9389 H 0 **** 0.053
12263 H 189.891 74.9608 44.8424 H 0 **** 0.053
12264 H 188.317 75.5015 44.2106 H 0 **** 0.053
12265 H 189.61 75.0173 43.0871 H 0 **** 0.053
12266 H 177.027 71.5209 42.7448 H 0 **** 0.41
12267 H 173.1 62.8478 32.8069 H 0 **** 0.053
12268 H 171.258 61.694 31.3691 H 0 **** 0.053
12269 H 168.994 61.789 30.2093 H 0 **** 0.053
12270 H 166.744 61.8492 28.9825 H 0 **** 0.053
12271 H 164.506 63.1655 28.4502 H 0 **** 0.053
12272 H 162.794 67.7102 29.3904 H 0 **** 0.053
12273 H 163.086 65.3051 28.6955 H 0 **** 0.053
12274 H 167.887 70.9605 33.1251 H 0 **** 0.053
12275 H 165.939 71.2423 33.5058 H 0 **** 0.053
12276 H 165.987 72.0698 31.9376 H 0 **** 0.053
12277 H 163.826 72.5589 33.0646 H 0 **** 0.053
12278 H 163.539 70.8349 33.3175 H 0 **** 0.053
12279 H 163.775 72.2171 30.5635 H 0 **** 0.053
12280 H 162.251 71.6117 31.2514 H 0 **** 0.053
12281 C 155.901 25.3194 107.663 C.3 0 **** 0.054
12282 C 154.899 25.2694 108.852 C.3 0 **** -0.106
12283 C 155.002 23.9192 109.614 C.3 0 **** -0.053
12284 C 155.19 22.7857 108.578 C.3 0 **** -0.053
12285 C 156.462 23.0542 107.718 C.3 0 **** 0.054
12286 O 156.949 24.3824 107.845 O.3 0 **** -0.32
12287 C 153.922 22.6299 107.688 C.3 0 **** -0.053
12288 C 152.585 22.8663 108.489 C.3 0 **** 0.107
12289 C 152.812 22.6447 109.98 C.3 0 **** -0.106
12290 C 153.809 23.6575 110.567 C.3 0 **** -0.106
12291 O 151.505 22.0131 108.096 O.3 0 **** -0.32
12292 C 151.45 21.8933 106.683 C.3 0 **** 0.107
12293 C 152.592 20.9313 106.259 C.3 0 **** -0.053
12294 C 153.916 21.2492 107.001 C.3 0 **** -0.106
12295 C 152.823 20.8244 104.774 C.2 0 **** 0
12296 C 152.582 22.096 103.972 C.3 0 **** 0
12297 C 151.449 22.9915 104.472 C.3 0 **** 0
12298 C 151.393 23.2444 105.974 C.3 0 **** -0.053
12299 C 151.246 24.2568 103.662 C.3 0 **** 0
12300 C 151.069 23.9299 102.184 C.3 0 **** 0
12301 C 152.308 23.0844 101.705 C.3 0 **** 0.16
12302 C 152.478 21.8019 102.489 C.3 0 **** 0
12303 C 153.587 20.8722 101.927 C.3 0 **** -0.106
12304 C 153.347 19.5423 102.625 C.3 0 **** -0.106
12305 C 153.18 19.6856 104.134 C.2 0 **** -0.1268
12306 O 152.555 22.9111 100.292 O.3 0 **** -0.32
12307 C 151.559 23.5124 99.493 C.3 0 **** 0.16
12308 C 151.163 24.9817 99.8603 C.3 0 **** 0
12309 C 150.922 25.241 101.368 C.3 0 **** 0
12310 C 150.166 24.0592 106.291 C.2 0 **** 0
12311 C 150.254 25.4482 105.724 C.3 0 **** -0.053
12312 C 150.15 25.1978 104.192 C.3 0 **** 0
12313 C 149.162 26.4264 106.097 C.2 0 **** 0
12314 C 148.009 25.9273 106.614 C.2 0 **** 0
12315 C 147.818 24.4676 106.999 C.3 0 **** -0.106
12316 C 149.061 23.6034 106.87 C.2 0 **** -0.1268
12317 C 146.887 26.8472 107.037 C.3 0 **** -0.106
12318 C 146.834 28.0419 106.096 C.3 0 **** -0.106
12319 C 148.235 28.6029 105.924 C.2 0 **** 0
12320 C 149.332 27.7789 105.946 C.2 0 **** 0
12321 C 150.71 28.3688 105.712 C.3 0 **** -0.106
12322 C 150.769 29.8796 105.885 C.3 0 **** -0.053
12323 C 149.643 30.5322 105.065 C.3 0 **** -0.106
12324 C 148.284 30.0835 105.612 C.3 0 **** -0.106
12325 C 149.703 26.0302 101.859 C.3 0 **** 0.147
12326 C 149.94 26.4523 103.302 C.3 0 **** -0.053
12327 C 150.134 25.6277 98.9253 C.3 0 **** 0
12328 C 149.7 27.057 99.2697 C.3 0 **** 0.147
12329 S 149.226 27.5106 100.92 S.3 0 **** -0.294
12330 C 148.78 27.6935 98.2686 C.3 0 **** -0.053
12331 C 149.435 27.6205 96.8833 C.3 0 **** 0
12332 C 149.786 26.1379 96.4749 C.3 0 **** 0
12333 C 150.759 25.5299 97.5055 C.3 0 **** 0
12334 C 150.425 26.148 95.0932 C.3 0 **** 0
12335 C 149.455 26.747 94.0937 C.3 0 **** 0
12336 C 149.01 28.226 94.4597 C.3 0 **** 0
12337 C 148.383 28.23 95.9027 C.3 0 **** -0.053
12338 C 147.931 28.6504 93.4238 C.3 0 **** 0
12339 C 148.633 28.7915 92.0906 C.3 0 **** 0.16
12340 C 149.344 27.5077 91.6526 C.3 0 **** 0
12341 C 149.852 26.5184 92.6614 C.3 0 **** 0
12342 C 151.279 24.1148 97.135 C.3 0 **** 0
12343 C 152.253 23.5362 98.1553 C.3 0 **** -0.053
12344 C 151.193 24.8811 94.6538 C.3 0 **** 0
12345 C 151.436 23.7345 95.6382 C.3 0 **** 0
12346 C 150.997 25.5821 92.2748 C.3 0 **** 0
12347 C 151.024 24.3672 93.2211 C.3 0 **** 0
12348 C 149.514 27.1794 90.1688 C.3 0 **** 0
12349 C 150.719 26.2193 89.9119 C.3 0 **** 0
12350 C 150.777 25.0025 90.8534 C.3 0 **** 0
12351 O 147.717 29.3344 91.1639 O.3 0 **** -0.32
12352 C 147.864 30.7377 91.3783 C.3 0 **** 0.107
12353 C 147.655 31.0814 92.8883 C.3 0 **** -0.053
12354 C 147.03 29.8944 93.6176 C.3 0 **** 0.107
12355 C 146.785 32.338 93.0424 C.3 0 **** -0.106
12356 C 147.17 33.3781 91.974 C.3 0 **** -0.106
12357 C 146.737 32.8979 90.576 C.3 0 **** 0.134
12358 C 146.852 31.356 90.4361 C.3 0 **** -0.053
12359 C 147.153 30.9201 88.9805 C.3 0 **** -0.106
12360 C 146.443 31.851 88.006 C.3 0 **** -0.106
12361 C 146.919 33.3225 88.2032 C.3 0 **** 0.081
12362 N 147.455 33.6035 89.5337 N.3 0 **** -0.727
12363 C 152.605 22.8103 95.2024 C.3 0 **** 0.16
12364 C 152.318 22.2797 93.8064 C.3 0 **** 0.16
12365 C 152.276 23.4462 92.8612 C.3 0 **** 0
12366 O 153.236 21.3149 93.3392 O.3 0 **** -0.32
12367 C 153.422 20.309 94.3291 C.3 0 **** 0.107
12368 C 153.927 20.9463 95.5872 C.3 0 **** 0.107
12369 O 152.876 21.7469 96.102 O.3 0 **** -0.32
12370 C 155.217 21.7738 95.3514 C.3 0 **** -0.106
12371 C 156.046 21.2242 94.1554 C.3 0 **** -0.106
12372 C 155.86 19.6983 94.038 C.3 0 **** -0.106
12373 C 154.385 19.3109 93.7373 C.3 0 **** -0.106
12374 C 151.994 24.0605 90.4397 C.3 0 **** 0
12375 C 152.049 22.854 91.4311 C.3 0 **** -0.053
12376 C 150.61 25.6729 88.4788 C.3 0 **** 0
12377 C 151.742 24.6875 88.1347 C.3 0 **** 0.16
12378 C 151.846 23.5188 89.03 C.3 0 **** -0.053
12379 C 150.643 26.9383 87.5341 C.3 0 **** 0
12380 C 149.436 27.9094 87.8649 C.3 0 **** 0
12381 C 149.68 28.4453 89.2841 C.3 0 **** -0.053
12382 O 151.765 24.2268 86.8255 O.3 0 **** -0.32
12383 C 151.598 25.3258 85.9385 C.3 0 **** 0.16
12384 C 150.367 26.2969 86.1778 C.3 0 **** 0
12385 C 149.249 29.0937 86.8754 C.3 0 **** -0.053
12386 C 149.273 28.5629 85.4434 C.3 0 **** -0.053
12387 C 150.365 27.4592 85.1766 C.3 0 **** 0
12388 C 149.665 29.6446 84.4957 C.3 0 **** -0.053
12389 C 149.031 30.9536 84.8848 C.3 0 **** -0.106
12390 C 149.688 31.4423 86.2076 C.3 0 **** -0.106
12391 C 150.238 30.2674 87.0421 C.3 0 **** -0.106
12392 C 150.156 26.8624 83.805 C.3 0 **** 0
12393 C 151.172 25.7324 83.4649 C.3 0 **** 0
12394 C 151.51 24.7258 84.5625 C.3 0 **** 0
12395 C 149.175 29.1004 83.1563 C.3 0 **** 0
12396 C 150.074 27.925 82.7312 C.3 0 **** 0
12397 C 152.182 30.4409 105.58 C.3 0 **** -0.053
12398 C 152.514 30.4555 104.081 C.3 0 **** -0.159
12399 C 152.365 31.8422 106.175 C.3 0 **** -0.159
12400 O 146.737 30.2301 94.9669 O.3 0 **** -0.57
12401 C 152.115 23.3285 84.2479 C.3 0 **** -0.053
12402 C 152.614 23.123 82.8139 C.3 0 **** -0.053
12403 C 151.625 23.7455 81.8121 C.3 0 **** 0
12404 C 151.378 25.2704 82.0335 C.3 0 **** 0
12405 C 150.583 26.0847 81.0276 C.3 0 **** 0
12406 C 150.5 25.5439 79.6301 C.3 0 **** 0
12407 C 151.295 24.2509 79.3187 C.3 0 **** 0
12408 C 152.143 23.52 80.3876 C.3 0 **** -0.053
12409 C 151.414 23.7948 77.871 C.3 0 **** -0.053
12410 C 150.93 24.7548 76.7621 C.3 0 **** -0.053
12411 C 149.945 25.8955 77.1639 C.3 0 **** 0
12412 C 150.302 26.589 78.5049 C.3 0 **** 0
12413 C 149.219 27.6589 78.9232 C.3 0 **** 0
12414 C 149.62 28.3377 80.2873 C.3 0 **** 0
12415 C 149.704 27.281 81.4077 C.3 0 **** 0
12416 C 149.099 28.7267 77.7895 C.3 0 **** 0
12417 C 148.709 27.9946 76.4515 C.3 0 **** -0.053
12418 C 149.755 26.9376 76.047 C.3 0 **** -0.053
12419 C 149.084 30.1503 82.0298 C.3 0 **** -0.053
12420 C 148.528 29.3869 80.7433 C.3 0 **** 0
12421 C 147.984 29.7994 78.1824 C.3 0 **** 0.02
12422 C 148.262 30.4314 79.5918 C.3 0 **** 0
12423 C 147.34 31.5712 80.0862 C.3 0 **** -0.106
12424 C 146.319 31.8882 79.0299 C.3 0 **** -0.106
12425 C 147.002 32.0802 77.6805 C.3 0 **** -0.086
12426 C 147.798 30.9328 77.1772 C.2 0 **** 0.379
12427 O 148.178 30.9141 76.0192 O.2 0 **** -0.419
12428 H 156.371 26.3092 107.587 H 0 **** 0.053
12429 H 155.38 25.1489 106.708 H 0 **** 0.053
12430 H 155.071 26.0969 109.568 H 0 **** 0.053
12431 H 153.867 25.4215 108.482 H 0 **** 0.053
12432 H 155.927 23.9677 110.212 H 0 **** 0.053
12433 H 155.307 21.8351 109.13 H 0 **** 0.053
12434 H 156.283 22.8121 106.655 H 0 **** 0.053
12435 H 157.282 22.4066 108.047 H 0 **** 0.053
12436 H 154.011 23.39 106.892 H 0 **** 0.053
12437 H 152.268 23.9184 108.368 H 0 **** 0.053
12438 H 153.18 21.6098 110.112 H 0 **** 0.053
12439 H 151.84 22.6955 110.496 H 0 **** 0.053
12440 H 154.171 23.2891 111.537 H 0 **** 0.053
12441 H 153.283 24.6013 110.77 H 0 **** 0.053
12442 H 150.524 21.3599 106.46 H 0 **** 0.053
12443 H 152.286 19.9288 106.579 H 0 **** 0.053
12444 H 154.815 21.145 106.355 H 0 **** 0.053
12445 H 154.029 20.4968 107.801 H 0 **** 0.053
12446 H 152.256 23.8773 106.232 H 0 **** 0.053
12447 H 153.479 20.7742 100.829 H 0 **** 0.053
12448 H 154.598 21.2887 102.119 H 0 **** 0.053
12449 H 154.142 18.8305 102.39 H 0 **** 0.053
12450 H 152.403 19.1235 102.231 H 0 **** 0.053
12451 H 153.386 18.7777 104.692 H 0 **** 0.1268
12452 H 151.261 25.8719 105.957 H 0 **** 0.053
12453 H 146.981 24.0113 106.39 H 0 **** 0.053
12454 H 147.478 24.4191 108.073 H 0 **** 0.053
12455 H 148.983 22.5888 107.25 H 0 **** 0.1268
12456 H 145.912 26.3143 107.073 H 0 **** 0.053
12457 H 147.106 27.1852 108.066 H 0 **** 0.053
12458 H 146.132 28.8139 106.468 H 0 **** 0.053
12459 H 146.458 27.723 105.105 H 0 **** 0.053
12460 H 151.411 27.9149 106.428 H 0 **** 0.053
12461 H 151.086 28.1012 104.705 H 0 **** 0.053
12462 H 150.566 30.0901 106.956 H 0 **** 0.053
12463 H 149.736 30.2261 104.01 H 0 **** 0.053
12464 H 149.708 31.6295 105.084 H 0 **** 0.053
12465 H 147.477 30.3589 104.893 H 0 **** 0.053
12466 H 148.069 30.642 106.551 H 0 **** 0.053
12467 H 149.065 27.1034 103.647 H 0 **** 0.053
12468 H 148.446 28.7453 98.5105 H 0 **** 0.053
12469 H 148.247 29.3078 96.2364 H 0 **** 0.053
12470 H 152.595 22.4831 97.9338 H 0 **** 0.053
12471 H 148.878 31.0335 91.0619 H 0 **** 0.053
12472 H 148.636 31.3204 93.3496 H 0 **** 0.053
12473 H 146.111 29.6345 93.1109 H 0 **** 0.053
12474 H 145.714 32.0657 92.9223 H 0 **** 0.053
12475 H 146.887 32.7476 94.0735 H 0 **** 0.053
12476 H 148.265 33.5006 92.013 H 0 **** 0.053
12477 H 146.731 34.3653 92.1889 H 0 **** 0.053
12478 H 145.67 33.1499 90.4659 H 0 **** 0.053
12479 H 145.88 30.91 90.7306 H 0 **** 0.053
12480 H 148.235 31.0241 88.81 H 0 **** 0.053
12481 H 146.888 29.8594 88.8259 H 0 **** 0.053
12482 H 145.357 31.766 88.1966 H 0 **** 0.053
12483 H 146.591 31.5287 86.9612 H 0 **** 0.053
12484 H 146.076 34.0073 88.0193 H 0 **** 0.053
12485 H 147.682 33.5806 87.4482 H 0 **** 0.053
12486 H 148.422 33.352 89.5792 H 0 **** 0.353
12487 H 152.448 19.865 94.533 H 0 **** 0.053
12488 H 154.146 20.1762 96.3221 H 0 **** 0.053
12489 H 154.994 22.8437 95.1535 H 0 **** 0.053
12490 H 155.851 21.7906 96.263 H 0 **** 0.053
12491 H 157.118 21.4889 94.2643 H 0 **** 0.053
12492 H 155.71 21.7064 93.2154 H 0 **** 0.053
12493 H 156.152 19.2523 95.0048 H 0 **** 0.053
12494 H 156.534 19.2752 93.2705 H 0 **** 0.053
12495 H 154.185 18.2738 94.0648 H 0 **** 0.053
12496 H 154.224 19.3289 92.6349 H 0 **** 0.053
12497 H 152.923 22.1805 91.1285 H 0 **** 0.053
12498 H 152.66 22.805 88.7893 H 0 **** 0.053
12499 H 148.876 29.2053 89.4934 H 0 **** 0.053
12500 H 148.259 29.4672 87.0982 H 0 **** 0.053
12501 H 148.272 28.1478 85.214 H 0 **** 0.053
12502 H 150.766 29.7873 84.4541 H 0 **** 0.053
12503 H 147.946 30.7899 85.0263 H 0 **** 0.053
12504 H 149.135 31.7531 84.1193 H 0 **** 0.053
12505 H 148.943 31.9973 86.8121 H 0 **** 0.053
12506 H 150.494 32.1653 85.9789 H 0 **** 0.053
12507 H 150.364 30.5763 88.0956 H 0 **** 0.053
12508 H 151.23 29.9615 86.684 H 0 **** 0.053
12509 H 152.913 29.7773 106.08 H 0 **** 0.053
12510 H 153.563 30.7491 103.914 H 0 **** 0.053
12511 H 151.875 31.1771 103.545 H 0 **** 0.053
12512 H 152.368 29.47 103.61 H 0 **** 0.053
12513 H 152.187 31.8408 107.262 H 0 **** 0.053
12514 H 151.663 32.5583 105.72 H 0 **** 0.053
12515 H 153.387 32.2158 106.003 H 0 **** 0.053
12516 H 146.349 29.447 95.351 H 0 **** 0.41
12517 H 152.692 22.8328 85.0788 H 0 **** 0.053
12518 H 152.821 22.0375 82.6 H 0 **** 0.053
12519 H 152.337 22.4421 80.133 H 0 **** 0.053
12520 H 151.919 22.8241 77.6329 H 0 **** 0.053
12521 H 150.826 24.3193 75.7371 H 0 **** 0.053
12522 H 148.548 28.7077 75.5991 H 0 **** 0.053
12523 H 149.533 26.4492 75.0698 H 0 **** 0.053
12524 H 148.375 31.0085 82.3168 H 0 **** 0.053
12525 H 146.856 31.3134 81.0446 H 0 **** 0.053
12526 H 148.025 32.398 80.2679 H 0 **** 0.053
12527 H 145.768 32.787 79.3018 H 0 **** 0.053
12528 H 145.582 31.0611 78.9769 H 0 **** 0.053
12529 H 147.736 32.8891 77.7232 H 0 **** 0.053
12530 H 146.331 32.2472 76.8406 H 0 **** 0.053
12531 C 145.974 11.5981 14.4817 C.3 0 **** 0.054
12532 C 146.269 11.8354 12.9725 C.3 0 **** -0.106
12533 C 147.668 12.4809 12.7707 C.3 0 **** -0.053
12534 C 147.885 13.5345 13.8834 C.3 0 **** -0.053
12535 C 147.763 12.8646 15.285 C.3 0 **** 0.054
12536 O 147.176 11.5722 15.2339 O.3 0 **** -0.32
12537 C 146.888 14.7202 13.7285 C.3 0 **** -0.053
12538 C 146.611 15.0872 12.2206 C.3 0 **** 0.107
12539 C 147.751 14.5993 11.3353 C.3 0 **** -0.106
12540 C 147.877 13.0668 11.3519 C.3 0 **** -0.106
12541 O 146.457 16.4895 11.9748 O.3 0 **** -0.32
12542 C 145.668 17.0916 12.9886 C.3 0 **** 0.107
12543 C 146.565 17.2342 14.2467 C.3 0 **** -0.053
12544 C 147.391 15.9493 14.5114 C.3 0 **** -0.106
12545 C 145.851 17.6789 15.4973 C.2 0 **** 0
12546 C 144.419 17.1866 15.6534 C.3 0 **** 0
12547 C 143.615 17.0607 14.36 C.3 0 **** 0
12548 C 144.32 16.3993 13.1822 C.3 0 **** -0.053
12549 C 142.199 16.5521 14.5485 C.3 0 **** 0
12550 C 141.452 17.4001 15.5721 C.3 0 **** 0
12551 C 142.284 17.42 16.9093 C.3 0 **** 0.16
12552 C 143.681 17.9684 16.7211 C.3 0 **** 0
12553 C 144.459 18.1543 18.0525 C.3 0 **** -0.106
12554 C 145.652 19.0155 17.6672 C.3 0 **** -0.106
12555 C 146.385 18.4983 16.4341 C.2 0 **** -0.1268
12556 O 141.664 17.8751 18.1325 O.3 0 **** -0.32
12557 C 140.34 18.3227 17.9315 C.3 0 **** 0.16
12558 C 139.407 17.3824 17.0987 C.3 0 **** 0
12559 C 140.028 16.8267 15.7922 C.3 0 **** 0
12560 C 143.419 16.45 11.9758 C.2 0 **** 0
12561 C 142.197 15.594 12.1532 C.3 0 **** -0.053
12562 C 141.4 16.3608 13.2477 C.3 0 **** 0
12563 C 141.28 15.4274 10.9616 C.2 0 **** 0
12564 C 141.403 16.3081 9.9343 C.2 0 **** 0
12565 C 142.518 17.34 9.83548 C.3 0 **** -0.106
12566 C 143.572 17.2495 10.9262 C.2 0 **** -0.1268
12567 C 140.543 16.1838 8.69844 C.3 0 **** -0.106
12568 C 139.162 15.6807 9.09562 C.3 0 **** -0.106
12569 C 139.315 14.487 10.0224 C.2 0 **** 0
12570 C 140.368 14.405 10.8989 C.2 0 **** 0
12571 C 140.454 13.2259 11.8497 C.3 0 **** -0.106
12572 C 139.581 12.0467 11.4457 C.3 0 **** -0.053
12573 C 138.152 12.5419 11.1647 C.3 0 **** -0.106
12574 C 138.167 13.5017 9.96985 C.3 0 **** -0.106
12575 C 139.251 16.8334 14.4697 C.3 0 **** 0.147
12576 C 139.94 15.8927 13.4923 C.3 0 **** -0.053
12577 C 137.959 17.8659 16.9653 C.3 0 **** 0
12578 C 137.02 16.9894 16.1263 C.3 0 **** 0.147
12579 S 137.495 16.3711 14.5293 S.3 0 **** -0.294
12580 C 135.581 17.4253 16.1202 C.3 0 **** -0.053
12581 C 135.097 17.554 17.5707 C.3 0 **** 0
12582 C 135.996 18.5449 18.4057 C.3 0 **** 0
12583 C 137.453 18.0389 18.4248 C.3 0 **** 0
12584 C 135.449 18.6246 19.8237 C.3 0 **** 0
12585 C 134.018 19.1229 19.7862 C.3 0 **** 0
12586 C 133.056 18.2082 18.9187 C.3 0 **** 0
12587 C 133.635 18.091 17.4615 C.3 0 **** -0.053
12588 C 131.67 18.9111 18.8716 C.3 0 **** 0
12589 C 131.094 18.8415 20.2688 C.3 0 **** 0.16
12590 C 132.004 19.4768 21.3243 C.3 0 **** 0
12591 C 133.492 19.5398 21.1314 C.3 0 **** 0
12592 C 138.404 18.8666 19.3301 C.3 0 **** 0
12593 C 139.836 18.3412 19.3515 C.3 0 **** -0.053
12594 C 136.372 19.2175 20.9115 C.3 0 **** 0
12595 C 137.832 19.5552 20.5987 C.3 0 **** 0
12596 C 134.395 19.6465 22.3597 C.3 0 **** 0
12597 C 135.781 20.1785 21.9468 C.3 0 **** 0
12598 C 131.41 20.1201 22.578 C.3 0 **** 0
12599 C 132.434 20.1658 23.7566 C.3 0 **** 0
12600 C 133.832 20.6809 23.3682 C.3 0 **** 0
12601 O 129.768 19.3228 20.2261 O.3 0 **** -0.32
12602 C 129.03 18.1533 19.8738 C.3 0 **** 0.107
12603 C 129.612 17.5169 18.5702 C.3 0 **** -0.053
12604 C 130.556 18.4986 17.8794 C.3 0 **** 0.107
12605 C 128.479 17.0898 17.6246 C.3 0 **** -0.106
12606 C 127.321 16.476 18.433 C.3 0 **** -0.106
12607 C 126.61 17.5613 19.2626 C.3 0 **** 0.134
12608 C 127.602 18.6452 19.7633 C.3 0 **** -0.053
12609 C 127.155 19.2736 21.1065 C.3 0 **** -0.106
12610 C 125.635 19.3697 21.1512 C.3 0 **** -0.106
12611 C 124.989 17.9573 21.012 C.3 0 **** 0.081
12612 N 125.839 16.9755 20.3405 N.3 0 **** -0.727
12613 C 138.709 19.6591 21.8751 C.3 0 **** 0.16
12614 C 138.097 20.6916 22.8093 C.3 0 **** 0.16
12615 C 136.739 20.203 23.2222 C.3 0 **** 0
12616 O 138.871 20.9857 23.953 O.3 0 **** -0.32
12617 C 140.214 21.2568 23.5682 C.3 0 **** 0.107
12618 C 140.77 20.0631 22.8542 C.3 0 **** 0.107
12619 O 140.075 19.9496 21.6236 O.3 0 **** -0.32
12620 C 140.658 18.7672 23.6985 C.3 0 **** -0.106
12621 C 140.679 19.0672 25.2249 C.3 0 **** -0.106
12622 C 141.539 20.3153 25.5077 C.3 0 **** -0.106
12623 C 140.955 21.5913 24.8383 C.3 0 **** -0.106
12624 C 134.756 20.76 24.6639 C.3 0 **** 0
12625 C 136.175 21.2537 24.2339 C.3 0 **** -0.053
12626 C 131.889 21.1152 24.8366 C.3 0 **** 0
12627 C 132.848 21.2521 26.0369 C.3 0 **** 0.16
12628 C 134.208 21.7244 25.6998 C.3 0 **** -0.053
12629 C 130.5 20.5092 25.2791 C.3 0 **** 0
12630 C 129.512 20.4303 24.0445 C.3 0 **** 0
12631 C 130.115 19.4128 23.0637 C.3 0 **** -0.053
12632 O 132.382 22.0151 27.1012 O.3 0 **** -0.32
12633 C 131.044 21.6324 27.3997 C.3 0 **** 0.16
12634 C 129.99 21.6015 26.2142 C.3 0 **** 0
12635 C 128.049 20.0329 24.3905 C.3 0 **** -0.053
12636 C 127.556 20.8888 25.5553 C.3 0 **** -0.053
12637 C 128.62 21.1099 26.6958 C.3 0 **** 0
12638 C 126.447 20.1992 26.2726 C.3 0 **** -0.053
12639 C 125.526 19.5115 25.2998 C.3 0 **** -0.106
12640 C 126.287 18.3098 24.67 C.3 0 **** -0.106
12641 C 127.813 18.5336 24.6728 C.3 0 **** -0.106
12642 C 128.101 22.1335 27.6779 C.3 0 **** 0
12643 C 129.103 22.451 28.8274 C.3 0 **** 0
12644 C 130.582 22.5793 28.4726 C.3 0 **** 0
12645 C 125.787 21.3451 27.0355 C.3 0 **** 0
12646 C 126.717 21.7881 28.1803 C.3 0 **** 0
12647 C 139.659 10.8911 12.4768 C.3 0 **** -0.053
12648 C 138.901 11.1919 13.7784 C.3 0 **** -0.159
12649 C 139.166 9.57092 11.8727 C.3 0 **** -0.159
12650 O 131.008 17.976 16.6372 O.3 0 **** -0.57
12651 C 131.592 23.3343 29.3825 C.3 0 **** -0.053
12652 C 131.095 23.6658 30.793 C.3 0 **** -0.053
12653 C 129.638 24.1601 30.7409 C.3 0 **** 0
12654 C 128.647 23.1397 30.1001 C.3 0 **** 0
12655 C 127.149 23.3842 30.1338 C.3 0 **** 0
12656 C 126.635 24.2974 31.2077 C.3 0 **** 0
12657 C 127.664 24.8535 32.2234 C.3 0 **** 0
12658 C 129.168 24.4953 32.1603 C.3 0 **** -0.053
12659 C 127.154 25.5994 33.4488 C.3 0 **** -0.053
12660 C 125.636 25.5852 33.7325 C.3 0 **** -0.053
12661 C 124.677 25.2272 32.5554 C.3 0 **** 0
12662 C 125.178 24.0543 31.6726 C.3 0 **** 0
12663 C 124.232 23.8007 30.4342 C.3 0 **** 0
12664 C 124.777 22.6038 29.5666 C.3 0 **** 0
12665 C 126.187 22.9281 29.0309 C.3 0 **** 0
12666 C 122.791 23.4953 30.9527 C.3 0 **** 0
12667 C 122.302 24.7145 31.8203 C.3 0 **** -0.053
12668 C 123.231 24.9767 33.0214 C.3 0 **** -0.053
12669 C 124.375 21.032 27.5721 C.3 0 **** -0.053
12670 C 123.864 22.3578 28.2989 C.3 0 **** 0
12671 C 121.814 23.2684 29.7114 C.3 0 **** 0.02
12672 C 122.361 22.1641 28.7395 C.3 0 **** 0
12673 C 121.486 21.7361 27.5372 C.3 0 **** -0.106
12674 C 120.187 22.4906 27.5678 C.3 0 **** -0.106
12675 C 119.559 22.3989 28.953 C.3 0 **** -0.086
12676 C 120.377 22.9115 30.0805 C.2 0 **** 0.379
12677 O 119.866 23.0885 31.1735 O.2 0 **** -0.419
12678 H 145.482 10.6283 14.6382 H 0 **** 0.053
12679 H 145.282 12.3629 14.8679 H 0 **** 0.053
12680 H 146.225 10.8919 12.3937 H 0 **** 0.053
12681 H 145.484 12.4781 12.5316 H 0 **** 0.053
12682 H 148.408 11.6807 12.9345 H 0 **** 0.053
12683 H 148.899 13.9571 13.7585 H 0 **** 0.053
12684 H 147.208 13.51 15.9878 H 0 **** 0.053
12685 H 148.757 12.719 15.7204 H 0 **** 0.053
12686 H 145.947 14.3924 14.2044 H 0 **** 0.053
12687 H 145.697 14.5659 11.8803 H 0 **** 0.053
12688 H 148.683 15.0734 11.6982 H 0 **** 0.053
12689 H 147.591 14.9757 10.3127 H 0 **** 0.053
12690 H 148.864 12.7799 10.9641 H 0 **** 0.053
12691 H 147.136 12.6387 10.662 H 0 **** 0.053
12692 H 145.473 18.1126 12.6543 H 0 **** 0.053
12693 H 147.285 18.0299 14.0244 H 0 **** 0.053
12694 H 147.478 15.6992 15.5916 H 0 **** 0.053
12695 H 148.421 16.1469 14.1637 H 0 **** 0.053
12696 H 144.441 15.3335 13.429 H 0 **** 0.053
12697 H 143.818 18.6662 18.7975 H 0 **** 0.053
12698 H 144.75 17.1766 18.4898 H 0 **** 0.053
12699 H 146.341 19.1246 18.5089 H 0 **** 0.053
12700 H 145.271 20.0238 17.4208 H 0 **** 0.053
12701 H 147.414 18.8341 16.3551 H 0 **** 0.1268
12702 H 142.506 14.5995 12.5564 H 0 **** 0.053
12703 H 142.081 18.3832 9.82439 H 0 **** 0.053
12704 H 143.04 17.2142 8.84467 H 0 **** 0.053
12705 H 144.438 17.8952 10.8131 H 0 **** 0.1268
12706 H 140.481 17.1457 8.14468 H 0 **** 0.053
12707 H 141.032 15.4565 8.02634 H 0 **** 0.053
12708 H 138.557 15.4251 8.20314 H 0 **** 0.053
12709 H 138.613 16.4769 9.63395 H 0 **** 0.053
12710 H 141.498 12.8814 11.886 H 0 **** 0.053
12711 H 140.198 13.5346 12.8818 H 0 **** 0.053
12712 H 139.99 11.6529 10.4927 H 0 **** 0.053
12713 H 137.766 13.066 12.0538 H 0 **** 0.053
12714 H 137.463 11.7088 10.9637 H 0 **** 0.053
12715 H 137.192 14.0392 9.90358 H 0 **** 0.053
12716 H 138.261 12.9102 9.03147 H 0 **** 0.053
12717 H 139.321 15.8387 12.5315 H 0 **** 0.053
12718 H 134.878 16.7912 15.5011 H 0 **** 0.053
12719 H 133.058 17.2866 16.9037 H 0 **** 0.053
12720 H 140.555 18.9659 19.9572 H 0 **** 0.053
12721 H 129.1 17.4341 20.7073 H 0 **** 0.053
12722 H 130.169 16.593 18.8296 H 0 **** 0.053
12723 H 130.014 19.4165 17.6993 H 0 **** 0.053
12724 H 128.109 17.9768 17.0661 H 0 **** 0.053
12725 H 128.87 16.3814 16.8585 H 0 **** 0.053
12726 H 127.754 15.7106 19.0981 H 0 **** 0.053
12727 H 126.598 15.9597 17.7829 H 0 **** 0.053
12728 H 125.898 18.0657 18.5894 H 0 **** 0.053
12729 H 127.639 19.4549 19.0057 H 0 **** 0.053
12730 H 127.469 18.6015 21.9186 H 0 **** 0.053
12731 H 127.648 20.2487 21.2668 H 0 **** 0.053
12732 H 125.319 20.0248 20.3192 H 0 **** 0.053
12733 H 125.291 19.8678 22.0738 H 0 **** 0.053
12734 H 124.045 18.0406 20.4492 H 0 **** 0.053
12735 H 124.708 17.5675 22.0063 H 0 **** 0.053
12736 H 126.466 16.5554 20.9969 H 0 **** 0.353
12737 H 140.194 22.0968 22.8743 H 0 **** 0.053
12738 H 141.819 20.2313 22.6272 H 0 **** 0.053
12739 H 139.729 18.2024 23.4714 H 0 **** 0.053
12740 H 141.476 18.0588 23.4504 H 0 **** 0.053
12741 H 141.049 18.1901 25.7938 H 0 **** 0.053
12742 H 139.646 19.2465 25.5847 H 0 **** 0.053
12743 H 142.544 20.1281 25.0917 H 0 **** 0.053
12744 H 141.663 20.4729 26.5946 H 0 **** 0.053
12745 H 141.75 22.3445 24.6875 H 0 **** 0.053
12746 H 140.211 22.0532 25.5277 H 0 **** 0.053
12747 H 136.833 21.311 25.168 H 0 **** 0.053
12748 H 134.902 21.8215 26.5608 H 0 **** 0.053
12749 H 129.374 19.285 22.2244 H 0 **** 0.053
12750 H 127.491 20.2899 23.5007 H 0 **** 0.053
12751 H 127.246 21.8725 25.1517 H 0 **** 0.053
12752 H 126.821 19.4431 26.9955 H 0 **** 0.053
12753 H 125.232 20.239 24.5193 H 0 **** 0.053
12754 H 124.583 19.1365 25.7553 H 0 **** 0.053
12755 H 125.946 18.1573 23.6264 H 0 **** 0.053
12756 H 126.032 17.38 25.2136 H 0 **** 0.053
12757 H 128.295 17.8757 23.9269 H 0 **** 0.053
12758 H 128.247 18.2742 25.6473 H 0 **** 0.053
12759 H 140.726 10.7529 12.733 H 0 **** 0.053
12760 H 139.077 10.4018 14.5258 H 0 **** 0.053
12761 H 137.815 11.2445 13.5962 H 0 **** 0.053
12762 H 139.209 12.1483 14.2308 H 0 **** 0.053
12763 H 139.738 9.30803 10.9683 H 0 **** 0.053
12764 H 138.103 9.63827 11.5911 H 0 **** 0.053
12765 H 139.274 8.74191 12.5891 H 0 **** 0.053
12766 H 131.586 18.6437 16.2734 H 0 **** 0.41
12767 H 132.676 23.0516 29.2653 H 0 **** 0.053
12768 H 131.78 24.3917 31.3122 H 0 **** 0.053
12769 H 129.819 25.238 32.6974 H 0 **** 0.053
12770 H 127.882 26.0734 34.1548 H 0 **** 0.053
12771 H 125.265 26.3114 34.4983 H 0 **** 0.053
12772 H 121.246 24.5917 32.183 H 0 **** 0.053
12773 H 122.872 25.7953 33.6871 H 0 **** 0.053
12774 H 123.659 20.7493 26.7179 H 0 **** 0.053
12775 H 122.013 21.8871 26.5783 H 0 **** 0.053
12776 H 121.354 20.665 27.6817 H 0 **** 0.053
12777 H 119.506 22.0899 26.8213 H 0 **** 0.053
12778 H 120.376 23.5486 27.2956 H 0 **** 0.053
12779 H 119.377 21.3585 29.2347 H 0 **** 0.053
12780 H 118.645 22.9729 29.0869 H 0 **** 0.053
12781 C 173.245 1.24157 52.7957 C.3 0 **** 0.054
12782 C 173.042 0.788435 54.2705 C.3 0 **** -0.106
12783 C 172.746 -0.734809 54.3523 C.3 0 **** -0.053
12784 C 171.807 -1.11364 53.1811 C.3 0 **** -0.053
12785 C 172.468 -0.732915 51.8221 C.3 0 **** 0.054
12786 O 173.58 0.139117 51.969 O.3 0 **** -0.32
12787 C 170.413 -0.439943 53.346 C.3 0 **** -0.053
12788 C 169.947 -0.369458 54.8504 C.3 0 **** 0.107
12789 C 170.669 -1.42309 55.6818 C.3 0 **** -0.106
12790 C 172.187 -1.17998 55.7269 C.3 0 **** -0.106
12791 O 168.543 -0.571843 55.0413 O.3 0 **** -0.32
12792 C 167.798 0.124815 54.0545 C.3 0 **** 0.107
12793 C 167.911 -0.685972 52.7359 C.3 0 **** -0.053
12794 C 169.363 -1.16195 52.4772 C.3 0 **** -0.106
12795 C 167.344 -0.00779569 51.515 C.2 0 **** 0
12796 C 167.482 1.50753 51.4741 C.3 0 **** 0
12797 C 167.375 2.22106 52.8212 C.3 0 **** 0
12798 C 168.152 1.6084 53.9798 C.3 0 **** -0.053
12799 C 167.534 3.72664 52.7474 C.3 0 **** 0
12800 C 166.561 4.32426 51.737 C.3 0 **** 0
12801 C 166.779 3.61274 50.3494 C.3 0 **** 0.16
12802 C 166.577 2.11527 50.422 C.3 0 **** 0
12803 C 166.621 1.41526 49.0361 C.3 0 **** -0.106
12804 C 166.061 0.0266761 49.304 C.3 0 **** -0.106
12805 C 166.704 -0.650526 50.5095 C.2 0 **** -0.1268
12806 O 166.224 4.19489 49.1492 O.3 0 **** -0.32
12807 C 165.466 5.3558 49.4148 C.3 0 **** 0.16
12808 C 166.131 6.42197 50.3478 C.3 0 **** 0
12809 C 166.782 5.85642 51.6355 C.3 0 **** 0
12810 C 167.852 2.38037 55.2383 C.2 0 **** 0
12811 C 168.395 3.78049 55.1785 C.3 0 **** -0.053
12812 C 167.491 4.45051 54.1042 C.3 0 **** 0
12813 C 168.3 4.62125 56.4321 C.2 0 **** 0
12814 C 167.442 4.21807 57.405 C.2 0 **** 0
12815 C 166.71 2.88517 57.3886 C.3 0 **** -0.106
12816 C 167.083 1.96485 56.2382 C.2 0 **** -0.1268
12817 C 167.318 4.99013 58.6955 C.3 0 **** -0.106
12818 C 167.493 6.47446 58.4184 C.3 0 **** -0.106
12819 C 168.716 6.67737 57.54 C.2 0 **** 0
12820 C 169.073 5.74188 56.6015 C.2 0 **** 0
12821 C 170.266 6.00841 55.7021 C.3 0 **** -0.106
12822 C 171.189 7.10447 56.2144 C.3 0 **** -0.053
12823 C 170.357 8.35031 56.5644 C.3 0 **** -0.106
12824 C 169.396 8.01965 57.7112 C.3 0 **** -0.106
12825 C 166.551 6.51039 53.0038 C.3 0 **** 0.147
12826 C 167.601 5.99419 53.9761 C.3 0 **** -0.053
12827 C 165.311 7.70016 50.5522 C.3 0 **** 0
12828 C 165.912 8.75546 51.489 C.3 0 **** 0.147
12829 S 166.581 8.32552 53.0778 S.3 0 **** -0.294
12830 C 165.144 10.0458 51.5682 C.3 0 **** -0.053
12831 C 164.944 10.5906 50.1475 C.3 0 **** 0
12832 C 164.222 9.54635 49.2123 C.3 0 **** 0
12833 C 165.063 8.25658 49.1221 C.3 0 **** 0
12834 C 164.054 10.161 47.8303 C.3 0 **** 0
12835 C 163.226 11.4259 47.9373 C.3 0 **** 0
12836 C 163.858 12.512 48.9057 C.3 0 **** 0
12837 C 164.069 11.8717 50.3264 C.3 0 **** -0.053
12838 C 162.842 13.6837 49.0102 C.3 0 **** 0
12839 C 162.812 14.361 47.6575 C.3 0 **** 0.16
12840 C 162.443 13.4062 46.5181 C.3 0 **** 0
12841 C 162.734 11.9363 46.6113 C.3 0 **** 0
12842 C 164.514 7.20558 48.1209 C.3 0 **** 0
12843 C 165.368 5.94482 48.031 C.3 0 **** -0.053
12844 C 163.731 9.20649 46.6595 C.3 0 **** 0
12845 C 163.745 7.68943 46.8618 C.3 0 **** 0
12846 C 162.882 11.1254 45.3238 C.3 0 **** 0
12847 C 162.687 9.62714 45.622 C.3 0 **** 0
12848 C 161.713 13.9209 45.2771 C.3 0 **** 0
12849 C 161.948 13.0052 44.0343 C.3 0 **** 0
12850 C 161.773 11.4998 44.3077 C.3 0 **** 0
12851 O 162.025 15.5278 47.7637 O.3 0 **** -0.32
12852 C 162.973 16.4938 48.2156 C.3 0 **** 0.107
12853 C 163.693 15.9859 49.5065 C.3 0 **** -0.053
12854 C 162.947 14.7877 50.0898 C.3 0 **** 0.107
12855 C 163.809 17.1146 50.5415 C.3 0 **** -0.106
12856 C 164.15 18.4411 49.838 C.3 0 **** -0.106
12857 C 162.95 18.9333 49.0073 C.3 0 **** 0.134
12858 C 162.15 17.7519 48.3954 C.3 0 **** -0.053
12859 C 161.471 18.1341 47.0566 C.3 0 **** -0.106
12860 C 161.015 19.5865 47.1054 C.3 0 **** -0.106
12861 C 162.227 20.5371 47.3492 C.3 0 **** 0.081
12862 N 163.364 19.8981 48.0086 N.3 0 **** -0.727
12863 C 163.891 6.90876 45.5281 C.3 0 **** 0.16
12864 C 162.769 7.32454 44.5894 C.3 0 **** 0.16
12865 C 162.929 8.78686 44.2877 C.3 0 **** 0
12866 O 162.702 6.58986 43.3859 O.3 0 **** -0.32
12867 C 162.75 5.19602 43.6707 C.3 0 **** 0.107
12868 C 164.022 4.88854 44.4007 C.3 0 **** 0.107
12869 O 163.93 5.49804 45.6775 O.3 0 **** -0.32
12870 C 165.276 5.36671 43.6251 C.3 0 **** -0.106
12871 C 165.034 5.38679 42.0884 C.3 0 **** -0.106
12872 C 164.037 4.27854 41.6944 C.3 0 **** -0.106
12873 C 162.64 4.4926 42.3416 C.3 0 **** -0.106
12874 C 161.955 10.6808 42.9529 C.3 0 **** 0
12875 C 161.804 9.15838 43.2678 C.3 0 **** -0.053
12876 C 160.927 13.3868 42.9502 C.3 0 **** 0
12877 C 161.058 12.5131 41.6853 C.3 0 **** 0.16
12878 C 160.916 11.0586 41.9125 C.3 0 **** -0.053
12879 C 161.194 14.909 42.6258 C.3 0 **** 0
12880 C 160.999 15.794 43.9236 C.3 0 **** 0
12881 C 162.102 15.379 44.9087 C.3 0 **** -0.053
12882 O 160.238 12.8613 40.6181 O.3 0 **** -0.32
12883 C 160.296 14.2707 40.4255 C.3 0 **** 0.16
12884 C 160.038 15.2119 41.6772 C.3 0 **** 0
12885 C 161.043 17.33 43.691 C.3 0 **** -0.053
12886 C 160.128 17.69 42.5228 C.3 0 **** -0.053
12887 C 160.201 16.6915 41.3074 C.3 0 **** 0
12888 C 160.551 18.9814 41.9105 C.3 0 **** -0.053
12889 C 160.97 19.9652 42.9709 C.3 0 **** -0.106
12890 C 162.3 19.4666 43.6041 C.3 0 **** -0.106
12891 C 162.449 17.9353 43.4928 C.3 0 **** -0.106
12892 C 159.111 17.0231 40.3152 C.3 0 **** 0
12893 C 159.075 16.0615 39.0905 C.3 0 **** 0
12894 C 159.298 14.5729 39.3413 C.3 0 **** 0
12895 C 159.303 19.4043 41.1404 C.3 0 **** 0
12896 C 159.129 18.4829 39.9193 C.3 0 **** 0
12897 C 172.358 7.37895 55.2337 C.3 0 **** -0.053
12898 C 171.922 8.13713 53.9713 C.3 0 **** -0.159
12899 C 173.504 8.12511 55.9275 C.3 0 **** -0.159
12900 O 163.526 14.3833 51.3228 O.3 0 **** -0.57
12901 C 158.831 13.4821 38.3366 C.3 0 **** -0.053
12902 C 158.431 13.9884 36.9478 C.3 0 **** -0.053
12903 C 157.602 15.2791 37.0697 C.3 0 **** 0
12904 C 158.336 16.4336 37.8191 C.3 0 **** 0
12905 C 157.738 17.8284 37.8723 C.3 0 **** 0
12906 C 156.763 18.1894 36.7916 C.3 0 **** 0
12907 C 156.494 17.1331 35.6906 C.3 0 **** 0
12908 C 157.204 15.7586 35.6705 C.3 0 **** -0.053
12909 C 155.69 17.5425 34.4645 C.3 0 **** -0.053
12910 C 155.343 19.0365 34.2824 C.3 0 **** -0.053
12911 C 155.427 19.9644 35.5333 C.3 0 **** 0
12912 C 156.661 19.6923 36.4339 C.3 0 **** 0
12913 C 156.645 20.5774 37.7409 C.3 0 **** 0
12914 C 157.912 20.2699 38.6249 C.3 0 **** 0
12915 C 157.92 18.7883 39.0536 C.3 0 **** 0
12916 C 156.61 22.0842 37.3306 C.3 0 **** 0
12917 C 155.335 22.3322 36.4422 C.3 0 **** -0.053
12918 C 155.337 21.4582 35.1731 C.3 0 **** -0.053
12919 C 159.284 20.8857 40.7105 C.3 0 **** -0.053
12920 C 157.896 21.1203 39.9583 C.3 0 **** 0
12921 C 156.561 22.9937 38.6414 C.3 0 **** 0.02
12922 C 157.736 22.6538 39.6246 C.3 0 **** 0
12923 C 157.907 23.5141 40.8991 C.3 0 **** -0.106
12924 C 156.865 24.5969 40.9198 C.3 0 **** -0.106
12925 C 156.842 25.3289 39.5828 C.3 0 **** -0.086
12926 C 156.573 24.4979 38.3826 C.2 0 **** 0.379
12927 O 156.309 25.03 37.3179 O.2 0 **** -0.419
12928 H 174.072 1.95944 52.7155 H 0 **** 0.053
12929 H 172.348 1.75841 52.4208 H 0 **** 0.053
12930 H 173.93 1.01243 54.8932 H 0 **** 0.053
12931 H 172.218 1.3634 54.7315 H 0 **** 0.053
12932 H 173.704 -1.24953 54.1776 H 0 **** 0.053
12933 H 171.637 -2.20537 53.221 H 0 **** 0.053
12934 H 171.728 -0.296969 51.1281 H 0 **** 0.053
12935 H 172.86 -1.62999 51.3305 H 0 **** 0.053
12936 H 170.519 0.583754 52.9471 H 0 **** 0.053
12937 H 170.224 0.614223 55.2724 H 0 **** 0.053
12938 H 170.443 -2.41138 55.2385 H 0 **** 0.053
12939 H 170.236 -1.43215 56.6946 H 0 **** 0.053
12940 H 172.691 -2.09659 56.0628 H 0 **** 0.053
12941 H 172.404 -0.4114 56.482 H 0 **** 0.053
12942 H 166.751 0.0464566 54.3543 H 0 **** 0.053
12943 H 167.305 -1.58848 52.8751 H 0 **** 0.053
12944 H 169.658 -1.10679 51.4062 H 0 **** 0.053
12945 H 169.409 -2.23139 52.7486 H 0 **** 0.053
12946 H 169.222 1.76241 53.7745 H 0 **** 0.053
12947 H 165.992 1.96916 48.3116 H 0 **** 0.053
12948 H 167.653 1.39729 48.6259 H 0 **** 0.053
12949 H 166.144 -0.604213 48.4157 H 0 **** 0.053
12950 H 164.984 0.138524 49.5288 H 0 **** 0.053
12951 H 166.623 -1.73304 50.5069 H 0 **** 0.1268
12952 H 169.446 3.7465 54.8022 H 0 **** 0.053
12953 H 165.592 3.05754 57.3818 H 0 **** 0.053
12954 H 166.931 2.33867 58.3493 H 0 **** 0.053
12955 H 166.661 0.964494 56.2665 H 0 **** 0.1268
12956 H 166.358 4.77945 59.2117 H 0 **** 0.053
12957 H 168.123 4.6298 59.3558 H 0 **** 0.053
12958 H 167.572 7.05229 59.3608 H 0 **** 0.053
12959 H 166.606 6.86119 57.8818 H 0 **** 0.053
12960 H 170.851 5.08139 55.6142 H 0 **** 0.053
12961 H 169.934 6.25906 54.6757 H 0 **** 0.053
12962 H 171.642 6.73113 57.1559 H 0 **** 0.053
12963 H 169.781 8.6648 55.6794 H 0 **** 0.053
12964 H 170.994 9.2004 56.8469 H 0 **** 0.053
12965 H 168.638 8.83114 57.8156 H 0 **** 0.053
12966 H 169.965 7.99957 58.6676 H 0 **** 0.053
12967 H 167.478 6.53555 54.9765 H 0 **** 0.053
12968 H 165.573 10.8317 52.2594 H 0 **** 0.053
12969 H 164.695 12.5807 50.9561 H 0 **** 0.053
12970 H 164.952 5.14377 47.3525 H 0 **** 0.053
12971 H 163.712 16.6583 47.413 H 0 **** 0.053
12972 H 164.73 15.6846 49.254 H 0 **** 0.053
12973 H 161.921 15.082 50.2626 H 0 **** 0.053
12974 H 162.843 17.2226 51.082 H 0 **** 0.053
12975 H 164.568 16.8481 51.3122 H 0 **** 0.053
12976 H 165.016 18.2522 49.1819 H 0 **** 0.053
12977 H 164.458 19.2171 50.5562 H 0 **** 0.053
12978 H 162.27 19.4538 49.7016 H 0 **** 0.053
12979 H 161.352 17.4687 49.1119 H 0 **** 0.053
12980 H 162.222 18.049 46.2574 H 0 **** 0.053
12981 H 160.648 17.4369 46.821 H 0 **** 0.053
12982 H 160.28 19.6762 47.9259 H 0 **** 0.053
12983 H 160.475 19.8693 46.1854 H 0 **** 0.053
12984 H 161.904 21.3894 47.9681 H 0 **** 0.053
12985 H 162.566 20.9746 46.3942 H 0 **** 0.053
12986 H 163.942 19.4379 47.334 H 0 **** 0.353
12987 H 161.911 4.96529 44.3256 H 0 **** 0.053
12988 H 164.104 3.81529 44.5518 H 0 **** 0.053
12989 H 165.595 6.38388 43.9371 H 0 **** 0.053
12990 H 166.153 4.72388 43.8519 H 0 **** 0.053
12991 H 165.99 5.27865 41.5373 H 0 **** 0.053
12992 H 164.623 6.37148 41.7884 H 0 **** 0.053
12993 H 164.448 3.31877 42.053 H 0 **** 0.053
12994 H 163.945 4.20103 40.5958 H 0 **** 0.053
12995 H 162.095 3.53235 42.4066 H 0 **** 0.053
12996 H 162.033 5.15394 41.6814 H 0 **** 0.053
12997 H 161.932 8.57582 42.2916 H 0 **** 0.053
12998 H 161.014 10.4276 41.0041 H 0 **** 0.053
12999 H 162.025 16.0651 45.7989 H 0 **** 0.053
13000 H 160.634 17.7446 44.6025 H 0 **** 0.053
13001 H 159.087 17.7274 42.9004 H 0 **** 0.053
13002 H 161.395 18.8515 41.2001 H 0 **** 0.053
13003 H 160.171 20.019 43.7348 H 0 **** 0.053
13004 H 161.121 21.0002 42.5943 H 0 **** 0.053
13005 H 162.337 19.7566 44.6734 H 0 **** 0.053
13006 H 163.157 19.9744 43.1208 H 0 **** 0.053
13007 H 163.182 17.5702 44.2352 H 0 **** 0.053
13008 H 162.833 17.6482 42.5052 H 0 **** 0.053
13009 H 172.756 6.39631 54.9157 H 0 **** 0.053
13010 H 172.752 8.20892 53.2508 H 0 **** 0.053
13011 H 171.605 9.16305 54.2206 H 0 **** 0.053
13012 H 171.081 7.64513 53.4572 H 0 **** 0.053
13013 H 173.87 7.56736 56.8042 H 0 **** 0.053
13014 H 173.175 9.11768 56.2737 H 0 **** 0.053
13015 H 174.355 8.2702 55.2441 H 0 **** 0.053
13016 H 163.008 13.6369 51.6177 H 0 **** 0.41
13017 H 159.363 12.4908 38.3959 H 0 **** 0.053
13018 H 157.907 13.1909 36.3528 H 0 **** 0.053
13019 H 156.655 14.9915 35.0608 H 0 **** 0.053
13020 H 155.42 16.7756 33.6947 H 0 **** 0.053
13021 H 154.572 19.2794 33.5095 H 0 **** 0.053
13022 H 155.21 23.4106 36.1546 H 0 **** 0.053
13023 H 154.475 21.6609 34.4959 H 0 **** 0.053
13024 H 159.362 21.584 41.6206 H 0 **** 0.053
13025 H 157.86 22.8969 41.8134 H 0 **** 0.053
13026 H 158.919 23.9079 40.8121 H 0 **** 0.053
13027 H 157.072 25.2977 41.7267 H 0 **** 0.053
13028 H 155.875 24.1442 41.1306 H 0 **** 0.053
13029 H 157.816 25.7733 39.3612 H 0 **** 0.053
13030 H 156.069 26.0878 39.4824 H 0 **** 0.053
13031 C 153.684 98.8548 70.9937 C.3 0 **** 0.054
13032 C 153.603 99.6638 72.3203 C.3 0 **** -0.106
13033 C 154.94 100.4 72.6102 C.3 0 **** -0.053
13034 C 156.108 99.4607 72.2261 C.3 0 **** -0.053
13035 C 155.995 99.0525 70.7265 C.3 0 **** 0.054
13036 O 154.724 99.3468 70.1644 O.3 0 **** -0.32
13037 C 156.146 98.2121 73.1559 C.3 0 **** -0.053
13038 C 155.752 98.5515 74.644 C.3 0 **** 0.107
13039 C 155.966 100.033 74.9272 C.3 0 **** -0.106
13040 C 155.053 100.921 74.0646 C.3 0 **** -0.106
13041 O 156.492 97.8232 75.6296 O.3 0 **** -0.32
13042 C 156.635 96.4646 75.2457 C.3 0 **** 0.107
13043 C 157.722 96.4114 74.1392 C.3 0 **** -0.053
13044 C 157.532 97.5395 73.0928 C.3 0 **** -0.106
13045 C 157.884 95.0743 73.4624 C.2 0 **** 0
13046 C 156.611 94.2563 73.2984 C.3 0 **** 0
13047 C 155.589 94.3834 74.428 C.3 0 **** 0
13048 C 155.301 95.7931 74.9291 C.3 0 **** -0.053
13049 C 154.326 93.5698 74.2258 C.3 0 **** 0
13050 C 154.663 92.1066 73.9598 C.3 0 **** 0
13051 C 155.646 92.0335 72.7323 C.3 0 **** 0.16
13052 C 156.923 92.813 72.9588 C.3 0 **** 0
13053 C 157.977 92.6181 71.8346 C.3 0 **** -0.106
13054 C 159.259 93.1851 72.4256 C.3 0 **** -0.106
13055 C 159.067 94.5647 73.0457 C.2 0 **** -0.1268
13056 O 155.873 90.7702 72.0686 O.3 0 **** -0.32
13057 C 155.186 89.7049 72.6901 C.3 0 **** 0.16
13058 C 153.676 89.9485 73.02 C.3 0 **** 0
13059 C 153.36 91.3056 73.6978 C.3 0 **** 0
13060 C 154.353 95.717 76.098 C.2 0 **** 0
13061 C 152.993 95.2272 75.6858 C.3 0 **** -0.053
13062 C 153.263 93.7381 75.3253 C.3 0 **** 0
13063 C 151.897 95.2477 76.7274 C.2 0 **** 0
13064 C 152.259 95.3653 78.0317 C.2 0 **** 0
13065 C 153.682 95.6487 78.4915 C.3 0 **** -0.106
13066 C 154.676 95.9088 77.372 C.2 0 **** -0.1268
13067 C 151.216 95.4239 79.1238 C.3 0 **** -0.106
13068 C 150.042 94.5317 78.7464 C.3 0 **** -0.106
13069 C 149.638 94.8209 77.3113 C.2 0 **** 0
13070 C 150.574 95.1785 76.3735 C.2 0 **** 0
13071 C 150.139 95.4017 74.9372 C.3 0 **** -0.106
13072 C 148.64 95.6068 74.7741 C.3 0 **** -0.053
13073 C 147.888 94.4811 75.5044 C.3 0 **** -0.106
13074 C 148.177 94.5619 77.0072 C.3 0 **** -0.106
13075 C 152.436 91.3954 74.9189 C.3 0 **** 0.147
13076 C 152.012 92.8448 75.106 C.3 0 **** -0.053
13077 C 152.946 88.7442 73.6249 C.3 0 **** 0
13078 C 151.472 88.9536 73.9948 C.3 0 **** 0.147
13079 S 150.929 90.3812 74.9023 S.3 0 **** -0.294
13080 C 150.756 87.7197 74.4686 C.3 0 **** -0.053
13081 C 150.928 86.6142 73.4184 C.3 0 **** 0
13082 C 152.448 86.3183 73.1199 C.3 0 **** 0
13083 C 153.136 87.5956 72.5952 C.3 0 **** 0
13084 C 152.536 85.2104 72.0801 C.3 0 **** 0
13085 C 151.857 83.9641 72.6119 C.3 0 **** 0
13086 C 150.332 84.191 72.988 C.3 0 **** 0
13087 C 150.231 85.3599 74.0351 C.3 0 **** -0.053
13088 C 149.815 82.8731 73.6301 C.3 0 **** 0
13089 C 149.778 81.8335 72.531 C.3 0 **** 0.16
13090 C 151.14 81.625 71.8619 C.3 0 **** 0
13091 C 152.156 82.7289 71.8085 C.3 0 **** 0
13092 C 154.606 87.3885 72.1419 C.3 0 **** 0
13093 C 155.264 88.6573 71.6093 C.3 0 **** -0.053
13094 C 153.886 85.0194 71.3538 C.3 0 **** 0
13095 C 155.032 86.0139 71.5592 C.3 0 **** 0
13096 C 153.218 82.7118 70.7088 C.3 0 **** 0
13097 C 154.409 83.6001 71.114 C.3 0 **** 0
13098 C 151.514 80.268 71.2652 C.3 0 **** 0
13099 C 152.603 80.392 70.153 C.3 0 **** 0
13100 C 153.799 81.2865 70.5262 C.3 0 **** 0
13101 O 149.159 80.6726 73.0415 O.3 0 **** -0.32
13102 C 147.776 80.9426 72.8189 C.3 0 **** 0.107
13103 C 147.38 82.3133 73.4572 C.3 0 **** -0.053
13104 C 148.478 82.7893 74.4061 C.3 0 **** 0.107
13105 C 146.035 82.2012 74.1898 C.3 0 **** -0.106
13106 C 145.065 81.3235 73.3774 C.3 0 **** -0.106
13107 C 145.525 79.8541 73.395 C.3 0 **** 0.134
13108 C 147.073 79.7368 73.407 C.3 0 **** -0.053
13109 C 147.569 78.4456 72.7097 C.3 0 **** -0.106
13110 C 146.588 77.3094 72.9695 C.3 0 **** -0.106
13111 C 145.172 77.6684 72.4241 C.3 0 **** 0.081
13112 N 144.921 79.1039 72.3124 N.3 0 **** -0.727
13113 C 156.084 85.9581 70.4199 C.3 0 **** 0.16
13114 C 156.61 84.5358 70.3054 C.3 0 **** 0.16
13115 C 155.466 83.6432 69.9196 C.3 0 **** 0
13116 O 157.677 84.3705 69.3954 O.3 0 **** -0.32
13117 C 158.676 85.3535 69.643 C.3 0 **** 0.107
13118 C 158.07 86.7157 69.4974 C.3 0 **** 0.107
13119 O 157.152 86.8821 70.5643 O.3 0 **** -0.32
13120 C 157.39 86.9134 68.1178 C.3 0 **** -0.106
13121 C 158.05 86.0347 67.0163 C.3 0 **** -0.106
13122 C 159.55 85.8424 67.3188 C.3 0 **** -0.106
13123 C 159.783 85.0834 68.6557 C.3 0 **** -0.106
13124 C 154.875 81.2672 69.3504 C.3 0 **** 0
13125 C 156.059 82.207 69.7435 C.3 0 **** -0.053
13126 C 153.163 78.9902 69.8622 C.3 0 **** 0
13127 C 154.273 79.0108 68.7907 C.3 0 **** 0.16
13128 C 155.429 79.8758 69.1053 C.3 0 **** -0.053
13129 C 151.929 78.1236 69.3937 C.3 0 **** 0
13130 C 150.828 78.0688 70.5293 C.3 0 **** 0
13131 C 150.292 79.4998 70.692 C.3 0 **** -0.053
13132 O 154.761 77.7696 68.3988 O.3 0 **** -0.32
13133 C 153.667 76.8908 68.1623 C.3 0 **** 0.16
13134 C 152.565 76.7405 69.2946 C.3 0 **** 0
13135 C 149.651 77.0879 70.2648 C.3 0 **** -0.053
13136 C 150.211 75.7303 69.8455 C.3 0 **** -0.053
13137 C 151.431 75.8082 68.852 C.3 0 **** 0
13138 C 149.198 74.9713 69.0593 C.3 0 **** -0.053
13139 C 147.821 75.158 69.6393 C.3 0 **** -0.106
13140 C 147.378 76.6278 69.3867 C.3 0 **** -0.106
13141 C 148.587 77.5769 69.2592 C.3 0 **** -0.106
13142 C 152.029 74.4324 68.6782 C.3 0 **** 0
13143 C 153.272 74.4121 67.7395 C.3 0 **** 0
13144 C 154.28 75.551 67.8618 C.3 0 **** 0
13145 C 149.714 73.538 69.1553 C.3 0 **** 0
13146 C 150.987 73.4034 68.2999 C.3 0 **** 0
13147 C 148.239 95.7737 73.2854 C.3 0 **** -0.053
13148 C 148.291 94.4575 72.4958 C.3 0 **** -0.159
13149 C 146.854 96.4158 73.15 C.3 0 **** -0.159
13150 O 148.085 83.9786 75.0782 O.3 0 **** -0.57
13151 C 155.745 75.4211 67.3572 C.3 0 **** -0.053
13152 C 156.031 74.2189 66.4518 C.3 0 **** -0.053
13153 C 155.326 72.9637 66.9969 C.3 0 **** 0
13154 C 153.779 73.1168 67.1341 C.3 0 **** 0
13155 C 152.907 71.9229 67.4802 C.3 0 **** 0
13156 C 153.463 70.5642 67.1705 C.3 0 **** 0
13157 C 154.842 70.5022 66.4662 C.3 0 **** 0
13158 C 155.635 71.7743 66.0822 C.3 0 **** -0.053
13159 C 155.336 69.1615 65.9401 C.3 0 **** -0.053
13160 C 154.354 67.9695 65.9435 C.3 0 **** -0.053
13161 C 153.106 68.0542 66.8761 C.3 0 **** 0
13162 C 152.427 69.4488 66.8897 C.3 0 **** 0
13163 C 151.239 69.5175 67.9272 C.3 0 **** 0
13164 C 150.579 70.9478 67.9086 C.3 0 **** 0
13165 C 151.615 72.0215 68.2992 C.3 0 **** 0
13166 C 150.188 68.4196 67.5663 C.3 0 **** 0
13167 C 150.902 67.0167 67.5884 C.3 0 **** -0.053
13168 C 152.073 66.9498 66.5889 C.3 0 **** -0.053
13169 C 148.684 72.4561 68.7705 C.3 0 **** -0.053
13170 C 149.41 71.0489 68.9692 C.3 0 **** 0
13171 C 148.995 68.4538 68.6259 C.3 0 **** 0.02
13172 C 148.367 69.8873 68.7426 C.3 0 **** 0
13173 C 147.125 70.0801 69.6452 C.3 0 **** -0.106
13174 C 146.723 68.7591 70.2381 C.3 0 **** -0.106
13175 C 146.633 67.6991 69.1462 C.3 0 **** -0.086
13176 C 147.869 67.4579 68.3604 C.2 0 **** 0.379
13177 O 147.952 66.4806 67.6363 O.2 0 **** -0.419
13178 H 152.752 98.9465 70.4196 H 0 **** 0.053
13179 H 153.818 97.7816 71.2001 H 0 **** 0.053
13180 H 152.784 100.409 72.2953 H 0 **** 0.053
13181 H 153.349 98.9885 73.1585 H 0 **** 0.053
13182 H 154.978 101.261 71.9231 H 0 **** 0.053
13183 H 157.054 100.008 72.3942 H 0 **** 0.053
13184 H 156.239 97.9851 70.585 H 0 **** 0.053
13185 H 156.72 99.6158 70.1279 H 0 **** 0.053
13186 H 155.417 97.4973 72.7376 H 0 **** 0.053
13187 H 154.675 98.3509 74.7907 H 0 **** 0.053
13188 H 157.031 100.261 74.7337 H 0 **** 0.053
13189 H 155.801 100.216 76.001 H 0 **** 0.053
13190 H 155.438 101.95 74.0706 H 0 **** 0.053
13191 H 154.055 100.961 74.5226 H 0 **** 0.053
13192 H 157.071 95.9515 76.1053 H 0 **** 0.053
13193 H 158.679 96.6033 74.6369 H 0 **** 0.053
13194 H 157.745 97.2112 72.0518 H 0 **** 0.053
13195 H 158.276 98.3235 73.3208 H 0 **** 0.053
13196 H 154.758 96.3206 74.1296 H 0 **** 0.053
13197 H 158.085 91.5409 71.5996 H 0 **** 0.053
13198 H 157.667 93.1267 70.898 H 0 **** 0.053
13199 H 160.056 93.2039 71.6787 H 0 **** 0.053
13200 H 159.582 92.5058 73.2358 H 0 **** 0.053
13201 H 159.98 95.1466 73.1264 H 0 **** 0.1268
13202 H 152.675 95.7737 74.7654 H 0 **** 0.053
13203 H 154.059 94.7989 79.1353 H 0 **** 0.053
13204 H 153.672 96.5579 79.1575 H 0 **** 0.053
13205 H 155.668 96.2293 77.6751 H 0 **** 0.1268
13206 H 151.641 95.1405 80.111 H 0 **** 0.053
13207 H 150.883 96.4739 79.2069 H 0 **** 0.053
13208 H 149.192 94.673 79.443 H 0 **** 0.053
13209 H 150.34 93.4683 78.8214 H 0 **** 0.053
13210 H 150.65 96.2967 74.5526 H 0 **** 0.053
13211 H 150.466 94.5624 74.2934 H 0 **** 0.053
13212 H 148.387 96.5603 75.2821 H 0 **** 0.053
13213 H 148.224 93.5063 75.1162 H 0 **** 0.053
13214 H 146.804 94.535 75.3312 H 0 **** 0.053
13215 H 147.833 93.6283 77.5099 H 0 **** 0.053
13216 H 147.58 95.3919 77.4472 H 0 **** 0.053
13217 H 151.265 92.9033 75.97 H 0 **** 0.053
13218 H 149.669 87.8603 74.7495 H 0 **** 0.053
13219 H 149.138 85.6486 74.1533 H 0 **** 0.053
13220 H 156.352 88.5402 71.3306 H 0 **** 0.053
13221 H 147.597 80.969 71.7307 H 0 **** 0.053
13222 H 147.237 83.0647 72.6531 H 0 **** 0.053
13223 H 148.65 82.0122 75.138 H 0 **** 0.053
13224 H 146.195 81.7435 75.1903 H 0 **** 0.053
13225 H 145.617 83.217 74.3759 H 0 **** 0.053
13226 H 145.063 81.7045 72.3431 H 0 **** 0.053
13227 H 144.032 81.4036 73.749 H 0 **** 0.053
13228 H 145.164 79.4146 74.3385 H 0 **** 0.053
13229 H 147.408 79.7012 74.4643 H 0 **** 0.053
13230 H 147.585 78.6286 71.6252 H 0 **** 0.053
13231 H 148.598 78.1997 73.0251 H 0 **** 0.053
13232 H 146.553 77.1443 74.0617 H 0 **** 0.053
13233 H 146.946 76.3613 72.5331 H 0 **** 0.053
13234 H 144.405 77.2358 73.0866 H 0 **** 0.053
13235 H 145.013 77.1991 71.438 H 0 **** 0.053
13236 H 145.272 79.4541 71.443 H 0 **** 0.353
13237 H 159.009 85.2312 70.6733 H 0 **** 0.053
13238 H 158.844 87.4711 69.6064 H 0 **** 0.053
13239 H 156.307 86.6703 68.1499 H 0 **** 0.053
13240 H 157.423 87.9792 67.8077 H 0 **** 0.053
13241 H 157.899 86.4817 66.0127 H 0 **** 0.053
13242 H 157.554 85.0437 66.983 H 0 **** 0.053
13243 H 160.004 86.8451 67.399 H 0 **** 0.053
13244 H 160.058 85.3222 66.4867 H 0 **** 0.053
13245 H 160.786 85.3158 69.0592 H 0 **** 0.053
13246 H 159.771 83.9873 68.4562 H 0 **** 0.053
13247 H 156.828 82.1874 68.8969 H 0 **** 0.053
13248 H 156.228 79.8953 68.3345 H 0 **** 0.053
13249 H 149.447 79.4536 71.4349 H 0 **** 0.053
13250 H 149.17 76.9904 71.2285 H 0 **** 0.053
13251 H 150.522 75.1892 70.7605 H 0 **** 0.053
13252 H 149.174 75.2833 67.9935 H 0 **** 0.053
13253 H 147.865 74.9456 70.7243 H 0 **** 0.053
13254 H 147.053 74.4766 69.2122 H 0 **** 0.053
13255 H 146.734 76.9726 70.2208 H 0 **** 0.053
13256 H 146.75 76.6774 68.4764 H 0 **** 0.053
13257 H 148.272 78.6201 69.4418 H 0 **** 0.053
13258 H 149.005 77.5478 68.2444 H 0 **** 0.053
13259 H 148.967 96.4704 72.8271 H 0 **** 0.053
13260 H 148.115 94.637 71.4231 H 0 **** 0.053
13261 H 147.517 93.7576 72.85 H 0 **** 0.053
13262 H 149.265 93.951 72.5899 H 0 **** 0.053
13263 H 146.814 97.3902 73.6625 H 0 **** 0.053
13264 H 146.076 95.7722 73.5905 H 0 **** 0.053
13265 H 146.595 96.5829 72.0931 H 0 **** 0.053
13266 H 148.82 84.2085 75.6433 H 0 **** 0.41
13267 H 156.28 76.3854 67.1259 H 0 **** 0.053
13268 H 157.136 74.0656 66.305 H 0 **** 0.053
13269 H 156.733 71.5793 65.9353 H 0 **** 0.053
13270 H 156.36 69.0811 65.4961 H 0 **** 0.053
13271 H 154.797 66.9583 65.7633 H 0 **** 0.053
13272 H 150.194 66.1674 67.3934 H 0 **** 0.053
13273 H 152.555 65.946 66.5401 H 0 **** 0.053
13274 H 147.749 72.5155 69.4378 H 0 **** 0.053
13275 H 147.31 70.8314 70.4329 H 0 **** 0.053
13276 H 146.373 70.4817 68.9683 H 0 **** 0.053
13277 H 145.765 68.855 70.7465 H 0 **** 0.053
13278 H 147.468 68.4632 71.0047 H 0 **** 0.053
13279 H 145.907 67.9839 68.3809 H 0 **** 0.053
13280 H 146.413 66.6922 69.4938 H 0 **** 0.053
13281 C 164.675 81.1723 8.90606 C.3 0 **** 0.054
13282 C 165.33 81.038 10.3113 C.3 0 **** -0.106
13283 C 166.547 80.0727 10.2717 C.3 0 **** -0.053
13284 C 166.196 78.8803 9.34998 C.3 0 **** -0.053
13285 C 165.829 79.3955 7.92566 C.3 0 **** 0.054
13286 O 165.585 80.7943 7.88591 O.3 0 **** -0.32
13287 C 165.046 78.0261 9.96066 C.3 0 **** -0.053
13288 C 165.138 77.9184 11.5307 C.3 0 **** 0.107
13289 C 166.562 78.1844 12.0005 C.3 0 **** -0.106
13290 C 167.017 79.6171 11.6757 C.3 0 **** -0.106
13291 O 164.752 76.6437 12.0564 O.3 0 **** -0.32
13292 C 163.591 76.1611 11.3982 C.3 0 **** 0.107
13293 C 164.035 75.6448 10.0035 C.3 0 **** -0.053
13294 C 165.016 76.627 9.31315 C.3 0 **** -0.106
13295 C 162.912 75.2661 9.07217 C.2 0 **** 0
13296 C 161.643 76.0986 9.19116 C.3 0 **** 0
13297 C 161.293 76.578 10.5992 C.3 0 **** 0
13298 C 162.435 77.1584 11.4242 C.3 0 **** -0.053
13299 C 160.034 77.4181 10.6802 C.3 0 **** 0
13300 C 158.855 76.6873 10.0465 C.3 0 **** 0
13301 C 159.242 76.2966 8.57094 C.3 0 **** 0.16
13302 C 160.475 75.4236 8.50101 C.3 0 **** 0
13303 C 160.777 74.8893 7.07419 C.3 0 **** -0.106
13304 C 161.807 73.7926 7.29946 C.3 0 **** -0.106
13305 C 162.958 74.2342 8.19638 C.2 0 **** -0.1268
13306 O 158.212 75.8871 7.64348 O.3 0 **** -0.32
13307 C 156.937 75.8305 8.24575 C.3 0 **** 0.16
13308 C 156.516 77.0724 9.09978 C.3 0 **** 0
13309 C 157.593 77.5884 10.0878 C.3 0 **** 0
13310 C 161.929 77.4846 12.8056 C.2 0 **** 0
13311 C 160.931 78.6076 12.7861 C.3 0 **** -0.053
13312 C 159.704 77.9598 12.0822 C.3 0 **** 0
13313 C 160.455 79.1446 14.1179 C.2 0 **** 0
13314 C 160.668 78.3848 15.224 C.2 0 **** 0
13315 C 161.504 77.113 15.2276 C.3 0 **** -0.106
13316 C 162.195 76.7973 13.9108 C.2 0 **** -0.1268
13317 C 160.248 78.8712 16.5916 C.3 0 **** -0.106
13318 C 158.961 79.6733 16.4663 C.3 0 **** -0.106
13319 C 159.104 80.6714 15.3303 C.2 0 **** 0
13320 C 159.852 80.3721 14.2194 C.2 0 **** 0
13321 C 159.923 81.3709 13.0797 C.3 0 **** -0.106
13322 C 159.488 82.7768 13.4678 C.3 0 **** -0.053
13323 C 158.127 82.7124 14.1806 C.3 0 **** -0.106
13324 C 158.269 81.9249 15.4875 C.3 0 **** -0.106
13325 C 157.246 77.9368 11.5411 C.3 0 **** 0.147
13326 C 158.378 78.7663 12.1285 C.3 0 **** -0.053
13327 C 155.097 77.0066 9.67528 C.3 0 **** 0
13328 C 154.659 78.1887 10.5492 C.3 0 **** 0.147
13329 S 155.697 78.8392 11.8361 S.3 0 **** -0.294
13330 C 153.222 78.1536 10.9918 C.3 0 **** -0.053
13331 C 152.327 77.9939 9.75539 C.3 0 **** 0
13332 C 152.704 76.7127 8.91704 C.3 0 **** 0
13333 C 154.169 76.8102 8.44406 C.3 0 **** 0
13334 C 151.77 76.6202 7.71864 C.3 0 **** 0
13335 C 150.337 76.5254 8.20097 C.3 0 **** 0
13336 C 149.892 77.7542 9.10041 C.3 0 **** 0
13337 C 150.876 77.8783 10.3212 C.3 0 **** -0.053
13338 C 148.458 77.4524 9.61773 C.3 0 **** 0
13339 C 147.537 77.5137 8.41916 C.3 0 **** 0.16
13340 C 147.94 76.5449 7.30351 C.3 0 **** 0
13341 C 149.368 76.1133 7.12794 C.3 0 **** 0
13342 C 154.61 75.6632 7.49643 C.3 0 **** 0
13343 C 156.056 75.7858 7.0239 C.3 0 **** -0.053
13344 C 152.186 75.6852 6.56143 C.3 0 **** 0
13345 C 153.56 75.0114 6.55651 C.3 0 **** 0
13346 C 149.834 75.6329 5.75357 C.3 0 **** 0
13347 C 151.124 74.8039 5.89785 C.3 0 **** 0
13348 C 146.884 75.9441 6.37513 C.3 0 **** 0
13349 C 147.49 75.4963 5.00723 C.3 0 **** 0
13350 C 148.789 74.6771 5.12186 C.3 0 **** 0
13351 O 146.206 77.4077 8.87698 O.3 0 **** -0.32
13352 C 145.881 78.7628 9.18413 C.3 0 **** 0.107
13353 C 146.938 79.3661 10.1643 C.3 0 **** -0.053
13354 C 147.797 78.2543 10.7643 C.3 0 **** 0.107
13355 C 146.25 80.1817 11.2685 C.3 0 **** -0.106
13356 C 145.077 80.9842 10.6763 C.3 0 **** -0.106
13357 C 143.934 80.0388 10.2605 C.3 0 **** 0.134
13358 C 144.473 78.6815 9.73395 C.3 0 **** -0.053
13359 C 143.531 78.0456 8.68105 C.3 0 **** -0.106
13360 C 142.081 78.3504 9.03401 C.3 0 **** -0.106
13361 C 141.835 79.8897 9.07072 C.3 0 **** 0.081
13362 N 143.038 80.6814 9.32067 N.3 0 **** -0.727
13363 C 153.989 74.5355 5.14247 C.3 0 **** 0.16
13364 C 152.921 73.6024 4.59317 C.3 0 **** 0.16
13365 C 151.646 74.3828 4.45027 C.3 0 **** 0
13366 O 153.248 72.9868 3.36566 O.3 0 **** -0.32
13367 C 154.549 72.4156 3.44635 C.3 0 **** 0.107
13368 C 155.538 73.4928 3.77084 C.3 0 **** 0.107
13369 O 155.269 73.9245 5.09408 O.3 0 **** -0.32
13370 C 155.481 74.668 2.76073 C.3 0 **** -0.106
13371 C 154.997 74.2021 1.35753 C.3 0 **** -0.106
13372 C 155.438 72.7475 1.10048 C.3 0 **** -0.106
13373 C 154.801 71.7556 2.11416 C.3 0 **** -0.106
13374 C 149.262 74.2104 3.67322 C.3 0 **** 0
13375 C 150.596 73.4111 3.81868 C.3 0 **** -0.053
13376 C 146.461 74.6085 4.2878 C.3 0 **** 0
13377 C 146.981 74.088 2.93165 C.3 0 **** 0.16
13378 C 148.239 73.3138 2.99961 C.3 0 **** -0.053
13379 C 145.175 75.5065 4.10265 C.3 0 **** 0
13380 C 144.626 75.9834 5.50873 C.3 0 **** 0
13381 C 145.696 76.9092 6.10738 C.3 0 **** -0.053
13382 O 146.071 73.36 2.17241 O.3 0 **** -0.32
13383 C 144.824 74.0462 2.15328 C.3 0 **** 0.16
13384 C 144.189 74.4888 3.53831 C.3 0 **** 0
13385 C 143.253 76.7117 5.47152 C.3 0 **** -0.053
13386 C 142.269 75.8901 4.64142 C.3 0 **** -0.053
13387 C 142.884 75.2677 3.33195 C.3 0 **** 0
13388 C 141.184 76.7627 4.11025 C.3 0 **** -0.053
13389 C 140.758 77.7753 5.14028 C.3 0 **** -0.106
13390 C 141.916 78.7967 5.33152 C.3 0 **** -0.106
13391 C 143.287 78.1783 4.98973 C.3 0 **** -0.106
13392 C 141.891 74.3132 2.7123 C.3 0 **** 0
13393 C 142.424 73.6142 1.42663 C.3 0 **** 0
13394 C 143.875 73.1408 1.41841 C.3 0 **** 0
13395 C 140.095 75.7531 3.75641 C.3 0 **** 0
13396 C 140.534 74.9529 2.5165 C.3 0 **** 0
13397 C 159.523 83.7467 12.2583 C.3 0 **** -0.053
13398 C 158.377 83.5116 11.2635 C.3 0 **** -0.159
13399 C 159.532 85.2096 12.7169 C.3 0 **** -0.159
13400 O 148.69 78.7763 11.7387 O.3 0 **** -0.57
13401 C 144.386 72.0465 0.439133 C.3 0 **** -0.053
13402 C 143.446 71.7018 -0.719909 C.3 0 **** -0.053
13403 C 141.993 71.618 -0.216111 C.3 0 **** 0
13404 C 141.48 72.9308 0.454335 C.3 0 **** 0
13405 C 140.019 73.0904 0.83773 C.3 0 **** 0
13406 C 139.029 72.2264 0.113069 C.3 0 **** 0
13407 C 139.572 71.3152 -1.01619 C.3 0 **** 0
13408 C 141.074 71.2601 -1.38932 C.3 0 **** -0.053
13409 C 138.58 70.5878 -1.91278 C.3 0 **** -0.053
13410 C 137.088 70.9757 -1.81206 C.3 0 **** -0.053
13411 C 136.611 71.7048 -0.517275 C.3 0 **** 0
13412 C 137.594 72.7951 -0.0139685 C.3 0 **** 0
13413 C 137.124 73.4279 1.35379 C.3 0 **** 0
13414 C 138.148 74.5279 1.8276 C.3 0 **** 0
13415 C 139.542 73.9051 2.04508 C.3 0 **** 0
13416 C 135.701 74.0426 1.16399 C.3 0 **** 0
13417 C 134.724 72.9059 0.681376 C.3 0 **** -0.053
13418 C 135.187 72.2743 -0.646183 C.3 0 **** -0.053
13419 C 138.696 76.3652 3.54078 C.3 0 **** -0.053
13420 C 137.714 75.1492 3.21588 C.3 0 **** 0
13421 C 135.197 74.6596 2.54713 C.3 0 **** 0.02
13422 C 136.232 75.6819 3.13577 C.3 0 **** 0
13423 C 135.857 76.4589 4.42021 C.3 0 **** -0.106
13424 C 134.469 76.078 4.85295 C.3 0 **** -0.106
13425 C 133.507 76.174 3.6744 C.3 0 **** -0.086
13426 C 133.831 75.3395 2.49018 C.2 0 **** 0.379
13427 O 133.002 75.1806 1.61099 O.2 0 **** -0.419
13428 H 164.389 82.2134 8.70406 H 0 **** 0.053
13429 H 163.75 80.579 8.84979 H 0 **** 0.053
13430 H 165.665 82.0187 10.702 H 0 **** 0.053
13431 H 164.582 80.6796 11.0427 H 0 **** 0.053
13432 H 167.368 80.625 9.78676 H 0 **** 0.053
13433 H 167.082 78.2215 9.29287 H 0 **** 0.053
13434 H 164.967 78.8442 7.51239 H 0 **** 0.053
13435 H 166.664 79.2227 7.23739 H 0 **** 0.053
13436 H 164.106 78.5347 9.68287 H 0 **** 0.053
13437 H 164.5 78.6976 11.9879 H 0 **** 0.053
13438 H 167.221 77.443 11.5093 H 0 **** 0.053
13439 H 166.622 77.9821 13.0817 H 0 **** 0.053
13440 H 168.112 79.6747 11.7469 H 0 **** 0.053
13441 H 166.62 80.3009 12.4392 H 0 **** 0.053
13442 H 163.278 75.2726 11.9501 H 0 **** 0.053
13443 H 164.592 74.7177 10.1801 H 0 **** 0.053
13444 H 164.843 76.7214 8.21868 H 0 **** 0.053
13445 H 166.031 76.2051 9.42362 H 0 **** 0.053
13446 H 162.715 78.1192 10.9663 H 0 **** 0.053
13447 H 159.852 74.4841 6.61786 H 0 **** 0.053
13448 H 161.142 75.6992 6.40855 H 0 **** 0.053
13449 H 162.183 73.4108 6.34714 H 0 **** 0.053
13450 H 161.297 72.9557 7.8118 H 0 **** 0.053
13451 H 163.865 73.6495 8.07629 H 0 **** 0.1268
13452 H 161.326 79.4326 12.1453 H 0 **** 0.053
13453 H 160.868 76.2305 15.5361 H 0 **** 0.053
13454 H 162.303 77.2075 16.0175 H 0 **** 0.053
13455 H 162.889 75.9627 13.9204 H 0 **** 0.1268
13456 H 160.134 78.0289 17.3081 H 0 **** 0.053
13457 H 161.059 79.5141 16.9778 H 0 **** 0.053
13458 H 158.71 80.1785 17.4201 H 0 **** 0.053
13459 H 158.117 78.9946 16.2356 H 0 **** 0.053
13460 H 160.962 81.4206 12.7229 H 0 **** 0.053
13461 H 159.32 81.0259 12.2175 H 0 **** 0.053
13462 H 160.231 83.1535 14.2013 H 0 **** 0.053
13463 H 157.395 82.212 13.5264 H 0 **** 0.053
13464 H 157.731 83.7153 14.3917 H 0 **** 0.053
13465 H 157.26 81.6751 15.8909 H 0 **** 0.053
13466 H 158.758 82.5723 16.2499 H 0 **** 0.053
13467 H 158.089 79.0901 13.1871 H 0 **** 0.053
13468 H 152.886 79.0169 11.6414 H 0 **** 0.053
13469 H 150.677 78.8645 10.8499 H 0 **** 0.053
13470 H 156.413 74.9283 6.38183 H 0 **** 0.053
13471 H 145.868 79.339 8.24363 H 0 **** 0.053
13472 H 147.59 80.0744 9.61143 H 0 **** 0.053
13473 H 147.138 77.5391 11.2371 H 0 **** 0.053
13474 H 145.866 79.4936 12.053 H 0 **** 0.053
13475 H 146.991 80.8435 11.7719 H 0 **** 0.053
13476 H 145.46 81.5277 9.79716 H 0 **** 0.053
13477 H 144.703 81.7434 11.3817 H 0 **** 0.053
13478 H 143.351 79.8203 11.1697 H 0 **** 0.053
13479 H 144.543 77.9823 10.5925 H 0 **** 0.053
13480 H 143.742 78.5146 7.70848 H 0 **** 0.053
13481 H 143.727 76.9633 8.58263 H 0 **** 0.053
13482 H 141.879 77.9012 10.0234 H 0 **** 0.053
13483 H 141.385 77.8597 8.33246 H 0 **** 0.053
13484 H 141.099 80.123 9.8567 H 0 **** 0.053
13485 H 141.376 80.2252 8.12417 H 0 **** 0.053
13486 H 143.528 80.846 8.46408 H 0 **** 0.353
13487 H 154.542 71.695 4.26379 H 0 **** 0.053
13488 H 156.544 73.0799 3.75592 H 0 **** 0.053
13489 H 154.807 75.4802 3.10589 H 0 **** 0.053
13490 H 156.473 75.1582 2.66462 H 0 **** 0.053
13491 H 155.374 74.8801 0.565268 H 0 **** 0.053
13492 H 153.891 74.2628 1.3052 H 0 **** 0.053
13493 H 156.536 72.7081 1.21213 H 0 **** 0.053
13494 H 155.207 72.4407 0.0641686 H 0 **** 0.053
13495 H 155.417 70.841 2.19613 H 0 **** 0.053
13496 H 153.807 71.4318 1.72727 H 0 **** 0.053
13497 H 150.929 73.0765 2.77639 H 0 **** 0.053
13498 H 148.616 72.9404 2.02466 H 0 **** 0.053
13499 H 145.275 77.3221 7.06735 H 0 **** 0.053
13500 H 142.931 76.7138 6.5038 H 0 **** 0.053
13501 H 141.876 75.0757 5.28102 H 0 **** 0.053
13502 H 141.494 77.306 3.19236 H 0 **** 0.053
13503 H 140.546 77.2445 6.08789 H 0 **** 0.053
13504 H 139.834 78.3322 4.87318 H 0 **** 0.053
13505 H 141.931 79.1511 6.38182 H 0 **** 0.053
13506 H 141.729 79.6935 4.70998 H 0 **** 0.053
13507 H 144.097 78.7651 5.46076 H 0 **** 0.053
13508 H 143.47 78.201 3.90771 H 0 **** 0.053
13509 H 160.476 83.5676 11.7235 H 0 **** 0.053
13510 H 158.504 84.1369 10.3652 H 0 **** 0.053
13511 H 157.406 83.769 11.7171 H 0 **** 0.053
13512 H 158.321 82.463 10.93 H 0 **** 0.053
13513 H 160.383 85.4123 13.387 H 0 **** 0.053
13514 H 158.608 85.4574 13.2625 H 0 **** 0.053
13515 H 159.612 85.894 11.8584 H 0 **** 0.053
13516 H 149.185 78.0258 12.0622 H 0 **** 0.41
13517 H 145.493 72.0444 0.229178 H 0 **** 0.053
13518 H 143.773 70.7658 -1.25244 H 0 **** 0.053
13519 H 141.36 70.3163 -1.93012 H 0 **** 0.053
13520 H 138.951 69.866 -2.68387 H 0 **** 0.053
13521 H 136.361 70.2913 -2.31636 H 0 **** 0.053
13522 H 133.664 73.2616 0.577558 H 0 **** 0.053
13523 H 134.479 71.5094 -1.04145 H 0 **** 0.053
13524 H 138.336 76.9229 4.47976 H 0 **** 0.053
13525 H 136.59 76.283 5.2277 H 0 **** 0.053
13526 H 135.931 77.5035 4.1218 H 0 **** 0.053
13527 H 134.139 76.7292 5.6602 H 0 **** 0.053
13528 H 134.486 75.0453 5.25663 H 0 **** 0.053
13529 H 133.489 77.1867 3.26359 H 0 **** 0.053
13530 H 132.489 75.8503 3.8789 H 0 **** 0.053
13531 C 97.3132 84.7883 1.83167 C.3 0 **** 0.054
13532 C 96.8269 83.4391 1.22823 C.3 0 **** -0.106
13533 C 96.2698 82.5 2.33392 C.3 0 **** -0.053
13534 C 97.1733 82.627 3.58403 C.3 0 **** -0.053
13535 C 97.2175 84.1091 4.06315 C.3 0 **** 0.054
13536 O 96.7161 85.0213 3.09665 O.3 0 **** -0.32
13537 C 98.6017 82.078 3.29531 C.3 0 **** -0.053
13538 C 98.5871 80.814 2.35341 C.3 0 **** 0.107
13539 C 97.2279 80.1269 2.40466 C.3 0 **** -0.106
13540 C 96.1057 81.0315 1.86896 C.3 0 **** -0.106
13541 O 99.5709 79.8261 2.67942 O.3 0 **** -0.32
13542 C 100.812 80.4394 2.99257 C.3 0 **** 0.107
13543 C 100.683 81.0326 4.42105 C.3 0 **** -0.053
13544 C 99.3348 81.7721 4.61682 C.3 0 **** -0.106
13545 C 101.837 81.8959 4.86326 C.2 0 **** 0
13546 C 102.507 82.7176 3.77081 C.3 0 **** 0
13547 C 102.573 82.0615 2.3923 C.3 0 **** 0
13548 C 101.3 81.386 1.89816 C.3 0 **** -0.053
13549 C 103.23 82.9125 1.32391 C.3 0 **** 0
13550 C 104.613 83.372 1.77391 C.3 0 **** 0
13551 C 104.469 84.1172 3.15356 C.3 0 **** 0.16
13552 C 103.851 83.2476 4.22614 C.3 0 **** 0
13553 C 103.854 83.9029 5.63438 C.3 0 **** -0.106
13554 C 103.527 82.7555 6.57795 C.3 0 **** -0.106
13555 C 102.317 81.944 6.12873 C.2 0 **** -0.1268
13556 O 105.558 84.9271 3.64861 O.3 0 **** -0.32
13557 C 106.689 84.8832 2.80423 C.3 0 **** 0.16
13558 C 106.425 85.0996 1.27697 C.3 0 **** 0
13559 C 105.241 84.2885 0.691409 C.3 0 **** 0
13560 C 101.578 80.7152 0.577953 C.2 0 **** 0
13561 C 101.866 81.7134 -0.50774 C.3 0 **** -0.053
13562 C 103.247 82.2891 -0.0826801 C.3 0 **** 0
13563 C 102.01 81.1898 -1.91947 C.2 0 **** 0
13564 C 102.22 79.8578 -2.08669 C.2 0 **** 0
13565 C 102.148 78.8423 -0.955667 C.3 0 **** -0.106
13566 C 101.706 79.4075 0.384247 C.2 0 **** -0.1268
13567 C 102.343 79.2597 -3.46902 C.3 0 **** -0.106
13568 C 103.043 80.2525 -4.386 C.3 0 **** -0.106
13569 C 102.405 81.6207 -4.21848 C.2 0 **** 0
13570 C 101.906 82.022 -3.00467 C.2 0 **** 0
13571 C 101.33 83.4181 -2.86246 C.3 0 **** -0.106
13572 C 100.991 84.0805 -4.19006 C.3 0 **** -0.053
13573 C 102.2 83.9786 -5.1351 C.3 0 **** -0.106
13574 C 102.487 82.5051 -5.44438 C.3 0 **** -0.106
13575 C 105.372 83.5226 -0.631429 C.3 0 **** 0.147
13576 C 103.979 83.1699 -1.13162 C.3 0 **** -0.053
13577 C 107.683 85.1199 0.402496 C.3 0 **** 0
13578 C 107.465 85.2941 -1.10561 C.3 0 **** 0.147
13579 S 106.249 84.3479 -1.99144 S.3 0 **** -0.294
13580 C 108.722 85.4353 -1.91761 C.3 0 **** -0.053
13581 C 109.566 86.5732 -1.32791 C.3 0 **** 0
13582 C 109.889 86.3378 0.197642 C.3 0 **** 0
13583 C 108.575 86.2439 1.00055 C.3 0 **** 0
13584 C 110.732 87.499 0.704674 C.3 0 **** 0
13585 C 112.017 87.5765 -0.0942885 C.3 0 **** 0
13586 C 111.78 87.76 -1.65217 C.3 0 **** 0
13587 C 110.878 86.583 -2.17574 C.3 0 **** -0.053
13588 C 113.172 87.6935 -2.3414 C.3 0 **** 0
13589 C 113.926 88.9382 -1.92877 C.3 0 **** 0.16
13590 C 114.065 89.0784 -0.409856 C.3 0 **** 0
13591 C 113.054 88.4742 0.521598 C.3 0 **** 0
13592 C 108.772 86.1446 2.53677 C.3 0 **** 0
13593 C 107.463 86.071 3.31581 C.3 0 **** -0.053
13594 C 110.842 87.6856 2.23412 C.3 0 **** 0
13595 C 110.002 86.8331 3.18799 C.3 0 **** 0
13596 C 112.889 89.0649 1.92198 C.3 0 **** 0
13597 C 112.201 88.0414 2.84464 C.3 0 **** 0
13598 C 115.274 89.79 0.198806 C.3 0 **** 0
13599 C 114.971 90.3468 1.62658 C.3 0 **** 0
13600 C 114.271 89.3478 2.56578 C.3 0 **** 0
13601 O 115.129 88.9925 -2.66571 O.3 0 **** -0.32
13602 C 114.721 89.6487 -3.86538 C.3 0 **** 0.107
13603 C 113.51 88.8998 -4.50956 C.3 0 **** -0.053
13604 C 113.34 87.5231 -3.87044 C.3 0 **** 0.107
13605 C 113.695 88.7781 -6.02928 C.3 0 **** -0.106
13606 C 114.293 90.0803 -6.59286 C.3 0 **** -0.106
13607 C 115.755 90.2423 -6.13642 C.3 0 **** 0.134
13608 C 115.978 89.6752 -4.70868 C.3 0 **** -0.053
13609 C 117.106 90.4199 -3.95147 C.3 0 **** -0.106
13610 C 118.201 90.8278 -4.92794 C.3 0 **** -0.106
13611 C 117.631 91.764 -6.03662 C.3 0 **** 0.081
13612 N 116.194 91.6178 -6.26104 N.3 0 **** -0.727
13613 C 109.866 87.4691 4.59749 C.3 0 **** 0.16
13614 C 111.257 87.7122 5.16312 C.3 0 **** 0.16
13615 C 111.957 88.7017 4.27638 C.3 0 **** 0
13616 O 111.281 88.1639 6.50028 O.3 0 **** -0.32
13617 C 110.452 87.3314 7.30373 C.3 0 **** 0.107
13618 C 109.054 87.3655 6.76528 C.3 0 **** 0.107
13619 O 109.075 86.7174 5.50447 O.3 0 **** -0.32
13620 C 108.499 88.8095 6.65958 C.3 0 **** -0.106
13621 C 109.144 89.7561 7.71236 C.3 0 **** -0.106
13622 C 109.503 88.9657 8.98662 C.3 0 **** -0.106
13623 C 110.563 87.8619 8.71077 C.3 0 **** -0.106
13624 C 114.093 89.9997 4.00886 C.3 0 **** 0
13625 C 113.351 88.9777 4.92869 C.3 0 **** -0.053
13626 C 116.303 90.7302 2.29219 C.3 0 **** 0
13627 C 116.114 91.2662 3.72461 C.3 0 **** 0.16
13628 C 115.425 90.3444 4.64998 C.3 0 **** -0.053
13629 C 116.953 91.821 1.35266 C.3 0 **** 0
13630 C 117.193 91.2317 -0.0977749 C.3 0 **** 0
13631 C 115.804 90.9478 -0.690989 C.3 0 **** -0.053
13632 O 117.263 91.7255 4.35532 O.3 0 **** -0.32
13633 C 117.986 92.5622 3.46036 C.3 0 **** 0.16
13634 C 118.316 92.0005 2.01413 C.3 0 **** 0
13635 C 118.004 92.1461 -1.05822 C.3 0 **** -0.053
13636 C 119.264 92.6339 -0.34599 C.3 0 **** -0.053
13637 C 119.043 93.0452 1.1583 C.3 0 **** 0
13638 C 119.751 93.9005 -0.962606 C.3 0 **** -0.053
13639 C 119.609 93.8562 -2.46104 C.3 0 **** -0.106
13640 C 118.094 93.8992 -2.81126 C.3 0 **** -0.106
13641 C 117.226 93.3312 -1.66963 C.3 0 **** -0.106
13642 C 120.38 93.3023 1.81339 C.3 0 **** 0
13643 C 120.263 93.684 3.31906 C.3 0 **** 0
13644 C 119.263 92.9088 4.17419 C.3 0 **** 0
13645 C 121.2 93.9615 -0.485616 C.3 0 **** 0
13646 C 121.221 94.2787 1.0209 C.3 0 **** 0
13647 C 100.46 85.5243 -3.99542 C.3 0 **** -0.053
13648 C 101.56 86.525 -3.61186 C.3 0 **** -0.159
13649 C 99.7106 86.015 -5.23991 C.3 0 **** -0.159
13650 O 112.312 86.788 -4.52029 O.3 0 **** -0.57
13651 C 119.366 92.8529 5.72508 C.3 0 **** -0.053
13652 C 120.347 93.8398 6.36638 C.3 0 **** -0.053
13653 C 121.644 93.9116 5.53842 C.3 0 **** 0
13654 C 121.422 94.3356 4.05267 C.3 0 **** 0
13655 C 122.6 94.6442 3.14512 C.3 0 **** 0
13656 C 123.888 95.0298 3.81227 C.3 0 **** 0
13657 C 123.878 95.1641 5.35585 C.3 0 **** 0
13658 C 122.61 94.8983 6.20434 C.3 0 **** -0.053
13659 C 125.097 95.7577 6.04817 C.3 0 **** -0.053
13660 C 126.184 96.4162 5.17027 C.3 0 **** -0.053
13661 C 126.232 96.0291 3.65951 C.3 0 **** 0
13662 C 124.834 95.9401 2.99119 C.3 0 **** 0
13663 C 124.925 95.4435 1.49554 C.3 0 **** 0
13664 C 123.487 95.3679 0.856146 C.3 0 **** 0
13665 C 122.605 94.372 1.63673 C.3 0 **** 0
13666 C 125.837 96.4241 0.690801 C.3 0 **** 0
13667 C 127.252 96.4692 1.37738 C.3 0 **** -0.053
13668 C 127.168 96.9383 2.84276 C.3 0 **** -0.053
13669 C 122.092 94.9518 -1.26244 C.3 0 **** -0.053
13670 C 123.553 94.8357 -0.631649 C.3 0 **** 0
13671 C 125.965 95.9178 -0.817507 C.3 0 **** 0.02
13672 C 124.558 95.7083 -1.47877 C.3 0 **** 0
13673 C 124.493 95.3228 -2.97572 C.3 0 **** -0.106
13674 C 125.884 95.2584 -3.54022 C.3 0 **** -0.106
13675 C 126.656 96.5222 -3.17875 C.3 0 **** -0.086
13676 C 126.794 96.8171 -1.73048 C.2 0 **** 0.379
13677 O 127.584 97.6659 -1.35262 O.2 0 **** -0.419
13678 H 97.0287 85.6317 1.18793 H 0 **** 0.053
13679 H 98.4117 84.8089 1.90343 H 0 **** 0.053
13680 H 96.0415 83.5927 0.462298 H 0 **** 0.053
13681 H 97.6578 82.9455 0.690706 H 0 **** 0.053
13682 H 95.2788 82.8956 2.60981 H 0 **** 0.053
13683 H 96.7451 81.9895 4.37951 H 0 **** 0.053
13684 H 98.238 84.3983 4.3694 H 0 **** 0.053
13685 H 96.5826 84.2376 4.94668 H 0 **** 0.053
13686 H 99.1498 82.8977 2.79956 H 0 **** 0.053
13687 H 98.7421 81.1365 1.3074 H 0 **** 0.053
13688 H 97.0353 79.8442 3.45691 H 0 **** 0.053
13689 H 97.2864 79.1846 1.8372 H 0 **** 0.053
13690 H 95.1342 80.6359 2.19589 H 0 **** 0.053
13691 H 96.1044 80.9887 0.770552 H 0 **** 0.053
13692 H 101.537 79.6279 3.07958 H 0 **** 0.053
13693 H 100.677 80.1805 5.11003 H 0 **** 0.053
13694 H 99.429 82.7017 5.21992 H 0 **** 0.053
13695 H 98.6767 81.1009 5.1964 H 0 **** 0.053
13696 H 100.567 82.1803 1.68937 H 0 **** 0.053
13697 H 104.853 84.3289 5.85189 H 0 **** 0.053
13698 H 103.124 84.7369 5.69297 H 0 **** 0.053
13699 H 103.391 83.1188 7.59957 H 0 **** 0.053
13700 H 104.395 82.0701 6.58435 H 0 **** 0.053
13701 H 101.833 81.3889 6.92622 H 0 **** 0.1268
13702 H 101.102 82.5271 -0.464016 H 0 **** 0.053
13703 H 103.146 78.3263 -0.831838 H 0 **** 0.053
13704 H 101.417 78.0335 -1.24272 H 0 **** 0.053
13705 H 101.532 78.6855 1.17677 H 0 **** 0.1268
13706 H 102.874 78.2832 -3.44635 H 0 **** 0.053
13707 H 101.32 79.0609 -3.83559 H 0 **** 0.053
13708 H 103.007 79.9159 -5.44109 H 0 **** 0.053
13709 H 104.113 80.3263 -4.11231 H 0 **** 0.053
13710 H 100.407 83.3564 -2.26606 H 0 **** 0.053
13711 H 102.019 84.0709 -2.2927 H 0 **** 0.053
13712 H 100.165 83.4941 -4.64222 H 0 **** 0.053
13713 H 103.08 84.4315 -4.65128 H 0 **** 0.053
13714 H 102.034 84.5295 -6.07184 H 0 **** 0.053
13715 H 103.485 82.4075 -5.93133 H 0 **** 0.053
13716 H 101.741 82.1388 -6.18553 H 0 **** 0.053
13717 H 104.069 82.6644 -2.15401 H 0 **** 0.053
13718 H 108.576 85.5595 -3.03247 H 0 **** 0.053
13719 H 110.55 86.82 -3.23779 H 0 **** 0.053
13720 H 107.587 85.9379 4.43037 H 0 **** 0.053
13721 H 114.433 90.6838 -3.61507 H 0 **** 0.053
13722 H 112.586 89.4933 -4.35287 H 0 **** 0.053
13723 H 114.274 86.9878 -3.97199 H 0 **** 0.053
13724 H 114.38 87.9316 -6.25288 H 0 **** 0.053
13725 H 112.723 88.5266 -6.51217 H 0 **** 0.053
13726 H 113.68 90.9148 -6.21307 H 0 **** 0.053
13727 H 114.232 90.1157 -7.69199 H 0 **** 0.053
13728 H 116.374 89.6391 -6.8204 H 0 **** 0.053
13729 H 116.279 88.6113 -4.80372 H 0 **** 0.053
13730 H 116.68 91.341 -3.52667 H 0 **** 0.053
13731 H 117.487 89.8081 -3.11505 H 0 **** 0.053
13732 H 118.61 89.9027 -5.37356 H 0 **** 0.053
13733 H 119.046 91.3094 -4.40609 H 0 **** 0.053
13734 H 118.15 91.5632 -6.98719 H 0 **** 0.053
13735 H 117.85 92.8187 -5.79481 H 0 **** 0.053
13736 H 115.682 92.1807 -5.61112 H 0 **** 0.353
13737 H 110.83 86.3127 7.2207 H 0 **** 0.053
13738 H 108.399 86.7961 7.41909 H 0 **** 0.053
13739 H 108.669 89.2471 5.65299 H 0 **** 0.053
13740 H 107.395 88.8211 6.78064 H 0 **** 0.053
13741 H 108.47 90.6047 7.94523 H 0 **** 0.053
13742 H 110.065 90.2089 7.2926 H 0 **** 0.053
13743 H 108.579 88.4837 9.3502 H 0 **** 0.053
13744 H 109.851 89.6427 9.78772 H 0 **** 0.053
13745 H 110.498 87.0672 9.47698 H 0 **** 0.053
13746 H 111.58 88.3061 8.80381 H 0 **** 0.053
13747 H 113.228 89.45 5.96356 H 0 **** 0.053
13748 H 115.284 90.7252 5.68237 H 0 **** 0.053
13749 H 115.962 90.6126 -1.75491 H 0 **** 0.053
13750 H 118.287 91.4884 -1.86874 H 0 **** 0.053
13751 H 120.021 91.8265 -0.395223 H 0 **** 0.053
13752 H 119.202 94.789 -0.584571 H 0 **** 0.053
13753 H 120.068 92.9191 -2.82969 H 0 **** 0.053
13754 H 120.12 94.6904 -2.98935 H 0 **** 0.053
13755 H 117.907 93.3133 -3.73343 H 0 **** 0.053
13756 H 117.794 94.9389 -3.04426 H 0 **** 0.053
13757 H 116.233 93.0382 -2.05722 H 0 **** 0.053
13758 H 117.05 94.0891 -0.895185 H 0 **** 0.053
13759 H 99.7275 85.4943 -3.16611 H 0 **** 0.053
13760 H 101.127 87.5087 -3.36914 H 0 **** 0.053
13761 H 102.268 86.6667 -4.44471 H 0 **** 0.053
13762 H 102.139 86.1942 -2.73526 H 0 **** 0.053
13763 H 98.8796 85.3392 -5.49771 H 0 **** 0.053
13764 H 100.384 86.0672 -6.11017 H 0 **** 0.053
13765 H 99.288 87.0187 -5.07892 H 0 **** 0.053
13766 H 112.269 85.9489 -4.06546 H 0 **** 0.41
13767 H 118.415 92.6231 6.28328 H 0 **** 0.053
13768 H 120.538 93.5893 7.44758 H 0 **** 0.053
13769 H 122.84 94.6647 7.28048 H 0 **** 0.053
13770 H 125.139 95.7938 7.16663 H 0 **** 0.053
13771 H 127.155 96.6478 5.67386 H 0 **** 0.053
13772 H 127.984 97.1135 0.81932 H 0 **** 0.053
13773 H 128.164 97.0395 3.3323 H 0 **** 0.053
13774 H 122.123 94.6932 -2.38231 H 0 **** 0.053
13775 H 123.957 94.3691 -3.12523 H 0 **** 0.053
13776 H 123.896 96.1167 -3.42208 H 0 **** 0.053
13777 H 125.843 95.1417 -4.6217 H 0 **** 0.053
13778 H 126.398 94.362 -3.13781 H 0 **** 0.053
13779 H 126.154 97.4132 -3.56456 H 0 **** 0.053
13780 H 127.699 96.534 -3.48923 H 0 **** 0.053
13781 C 172.915 -1.91791 64.8015 C.3 0 **** 0.054
13782 C 172.34 -1.69807 63.3726 C.3 0 **** -0.106
13783 C 173.479 -1.55437 62.3259 C.3 0 **** -0.053
13784 C 174.616 -0.711531 62.9536 C.3 0 **** -0.053
13785 C 175.124 -1.38895 64.2618 C.3 0 **** 0.054
13786 O 174.248 -2.39871 64.742 O.3 0 **** -0.32
13787 C 174.145 0.749735 63.2138 C.3 0 **** -0.053
13788 C 173.179 1.28566 62.0886 C.3 0 **** 0.107
13789 C 173.374 0.497966 60.7988 C.3 0 **** -0.106
13790 C 173 -0.983849 60.9677 C.3 0 **** -0.106
13791 O 173.36 2.66948 61.7686 O.3 0 **** -0.32
13792 C 173.539 3.43697 62.9488 C.3 0 **** 0.107
13793 C 174.987 3.18488 63.4463 C.3 0 **** -0.053
13794 C 175.361 1.68156 63.3863 C.3 0 **** -0.106
13795 C 175.31 3.76393 64.8 C.2 0 **** 0
13796 C 174.167 3.77804 65.8052 C.3 0 **** 0
13797 C 172.775 4.01607 65.2239 C.3 0 **** 0
13798 C 172.419 3.23167 63.967 C.3 0 **** -0.053
13799 C 171.657 4.00771 66.2484 C.3 0 **** 0
13800 C 171.951 4.99135 67.3759 C.3 0 **** 0
13801 C 173.356 4.64151 67.9933 C.3 0 **** 0.16
13802 C 174.472 4.6936 66.9734 C.3 0 **** 0
13803 C 175.886 4.51775 67.5914 C.3 0 **** -0.106
13804 C 176.833 4.94551 66.4797 C.3 0 **** -0.106
13805 C 176.51 4.29097 65.1409 C.2 0 **** -0.1268
13806 O 173.738 5.1996 69.2701 O.3 0 **** -0.32
13807 C 172.764 6.08211 69.7847 C.3 0 **** 0.16
13808 C 171.286 5.57038 69.7712 C.3 0 **** 0
13809 C 170.825 4.92258 68.4409 C.3 0 **** 0
13810 C 171.059 3.664 63.4863 C.2 0 **** 0
13811 C 169.972 3.26424 64.4435 C.3 0 **** -0.053
13812 C 170.243 4.18364 65.6682 C.3 0 **** 0
13813 C 168.54 3.49652 64.0136 C.2 0 **** 0
13814 C 168.315 4.34855 62.9795 C.2 0 **** 0
13815 C 169.423 4.94754 62.1269 C.3 0 **** -0.106
13816 C 170.819 4.4334 62.4313 C.2 0 **** -0.1268
13817 C 166.914 4.60299 62.4746 C.3 0 **** -0.106
13818 C 165.945 4.57322 63.648 C.3 0 **** -0.106
13819 C 166.222 3.34146 64.4926 C.2 0 **** 0
13820 C 167.496 2.85035 64.6259 C.2 0 **** 0
13821 C 167.742 1.65344 65.5254 C.3 0 **** -0.106
13822 C 166.481 0.869714 65.862 C.3 0 **** -0.053
13823 C 165.397 1.83792 66.3639 C.3 0 **** -0.106
13824 C 165.018 2.81039 65.2415 C.3 0 **** -0.106
13825 C 169.477 5.27858 67.801 C.3 0 **** 0.147
13826 C 169.137 4.2247 66.7573 C.3 0 **** -0.053
13827 C 170.268 6.52499 70.4058 C.3 0 **** 0
13828 C 168.802 6.07616 70.3798 C.3 0 **** 0.147
13829 S 168.043 5.43488 68.9065 S.3 0 **** -0.294
13830 C 167.849 6.97314 71.1212 C.3 0 **** -0.053
13831 C 168.363 7.16437 72.5544 C.3 0 **** 0
13832 C 169.833 7.7352 72.5817 C.3 0 **** 0
13833 C 170.784 6.7643 71.8524 C.3 0 **** 0
13834 C 170.265 7.90409 74.0308 C.3 0 **** 0
13835 C 169.321 8.85992 74.7317 C.3 0 **** 0
13836 C 167.808 8.38461 74.7025 C.3 0 **** 0
13837 C 167.365 8.17216 73.2087 C.3 0 **** -0.053
13838 C 166.956 9.51785 75.3398 C.3 0 **** 0
13839 C 167.307 9.55768 76.8109 C.3 0 **** 0.16
13840 C 168.802 9.77684 77.0639 C.3 0 **** 0
13841 C 169.831 9.34285 76.061 C.3 0 **** 0
13842 C 172.283 7.1599 71.9317 C.3 0 **** 0
13843 C 173.21 6.17912 71.2211 C.3 0 **** -0.053
13844 C 171.775 8.07688 74.3093 C.3 0 **** 0
13845 C 172.8 7.91825 73.1839 C.3 0 **** 0
13846 C 171.256 9.05689 76.536 C.3 0 **** 0
13847 C 172.228 9.11244 75.3423 C.3 0 **** 0
13848 C 169.28 10.5009 78.323 C.3 0 **** 0
13849 C 170.747 10.1201 78.6991 C.3 0 **** 0
13850 C 171.737 10.1537 77.5206 C.3 0 **** 0
13851 O 166.434 10.4623 77.4511 O.3 0 **** -0.32
13852 C 165.308 9.63796 77.7517 C.3 0 **** 0.107
13853 C 164.794 8.9277 76.4581 C.3 0 **** -0.053
13854 C 165.414 9.57312 75.2201 C.3 0 **** 0.107
13855 C 163.261 8.97247 76.3889 C.3 0 **** -0.106
13856 C 162.663 8.73716 77.7884 C.3 0 **** -0.106
13857 C 162.946 9.94337 78.7035 C.3 0 **** 0.134
13858 C 164.322 10.5916 78.3925 C.3 0 **** -0.053
13859 C 164.958 11.2462 79.6437 C.3 0 **** -0.106
13860 C 163.869 11.8494 80.521 C.3 0 **** -0.106
13861 C 162.86 10.7523 80.98 C.3 0 **** 0.081
13862 N 162.805 9.58589 80.1007 N.3 0 **** -0.727
13863 C 174.231 7.63528 73.7135 C.3 0 **** 0.16
13864 C 174.633 8.75139 74.665 C.3 0 **** 0.16
13865 C 173.695 8.72771 75.8373 C.3 0 **** 0
13866 O 175.969 8.69105 75.1173 O.3 0 **** -0.32
13867 C 176.844 8.51411 74.0085 C.3 0 **** 0.107
13868 C 176.477 7.25141 73.2912 C.3 0 **** 0.107
13869 O 175.207 7.4604 72.6977 O.3 0 **** -0.32
13870 C 176.475 6.0189 74.2322 C.3 0 **** -0.106
13871 C 177.468 6.19449 75.4177 C.3 0 **** -0.106
13872 C 178.669 7.05541 74.9799 C.3 0 **** -0.106
13873 C 178.241 8.49446 74.5758 C.3 0 **** -0.106
13874 C 173.208 9.83054 78.0432 C.3 0 **** 0
13875 C 174.183 9.83988 76.8227 C.3 0 **** -0.053
13876 C 171.258 11.1258 79.744 C.3 0 **** 0
13877 C 172.717 10.8513 80.1609 C.3 0 **** 0.16
13878 C 173.694 10.8544 79.0525 C.3 0 **** -0.053
13879 C 170.276 11.0006 80.975 C.3 0 **** 0
13880 C 168.793 11.342 80.5379 C.3 0 **** 0
13881 C 168.363 10.2457 79.551 C.3 0 **** -0.053
13882 O 173.219 11.657 81.176 O.3 0 **** -0.32
13883 C 172.264 11.7326 82.2282 C.3 0 **** 0.16
13884 C 170.774 12.138 81.8612 C.3 0 **** 0
13885 C 167.767 11.4432 81.7007 C.3 0 **** -0.053
13886 C 168.336 12.3384 82.7994 C.3 0 **** -0.053
13887 C 169.865 12.1113 83.0966 C.3 0 **** 0
13888 C 167.698 12.0217 84.1089 C.3 0 **** -0.053
13889 C 166.227 11.752 83.9371 C.3 0 **** -0.106
13890 C 166.061 10.4066 83.1738 C.3 0 **** -0.106
13891 C 167.283 10.0982 82.2844 C.3 0 **** -0.106
13892 C 170.362 13.1845 84.0361 C.3 0 **** 0
13893 C 171.881 13.0665 84.3611 C.3 0 **** 0
13894 C 172.83 12.7103 83.2203 C.3 0 **** 0
13895 C 168 13.2715 84.9316 C.3 0 **** 0
13896 C 169.501 13.2978 85.2745 C.3 0 **** 0
13897 C 166.775 -0.307665 66.8274 C.3 0 **** -0.053
13898 C 167.05 0.147828 68.268 C.3 0 **** -0.159
13899 C 165.642 -1.34011 66.8078 C.3 0 **** -0.159
13900 O 164.872 9.00972 74.0329 O.3 0 **** -0.57
13901 C 174.354 13.0149 83.2824 C.3 0 **** -0.053
13902 C 174.898 13.4045 84.6603 C.3 0 **** -0.053
13903 C 173.924 14.3664 85.3644 C.3 0 **** 0
13904 C 172.488 13.7869 85.5507 C.3 0 **** 0
13905 C 171.454 14.5225 86.3854 C.3 0 **** 0
13906 C 171.973 15.4848 87.4132 C.3 0 **** 0
13907 C 173.51 15.5915 87.5785 C.3 0 **** 0
13908 C 174.495 14.7485 86.7338 C.3 0 **** -0.053
13909 C 174.067 16.3852 88.7524 C.3 0 **** -0.053
13910 C 173.082 16.8693 89.8392 C.3 0 **** -0.053
13911 C 171.567 16.9348 89.4741 C.3 0 **** 0
13912 C 171.068 15.721 88.647 C.3 0 **** 0
13913 C 169.56 15.8837 88.2092 C.3 0 **** 0
13914 C 169.095 14.6317 87.3734 C.3 0 **** 0
13915 C 169.949 14.4923 86.0967 C.3 0 **** 0
13916 C 168.678 16.0529 89.487 C.3 0 **** 0
13917 C 169.191 17.3071 90.2877 C.3 0 **** -0.053
13918 C 170.668 17.1605 90.7034 C.3 0 **** -0.053
13919 C 167.148 13.4224 86.2088 C.3 0 **** -0.053
13920 C 167.597 14.7927 86.8928 C.3 0 **** 0
13921 C 167.152 16.2514 89.0605 C.3 0 **** 0.02
13922 C 166.659 15.0922 88.1249 C.3 0 **** 0
13923 C 165.171 15.0654 87.7019 C.3 0 **** -0.106
13924 C 164.443 16.2117 88.3457 C.3 0 **** -0.106
13925 C 164.742 16.2505 89.84 C.3 0 **** -0.086
13926 C 166.17 16.3809 90.2218 C.2 0 **** 0.379
13927 O 166.473 16.6506 91.3717 O.2 0 **** -0.419
13928 H 172.332 -2.67115 65.3483 H 0 **** 0.053
13929 H 172.856 -0.990348 65.3918 H 0 **** 0.053
13930 H 171.677 -2.53105 63.0656 H 0 **** 0.053
13931 H 171.694 -0.800102 63.3604 H 0 **** 0.053
13932 H 173.882 -2.56715 62.1611 H 0 **** 0.053
13933 H 175.44 -0.651242 62.2193 H 0 **** 0.053
13934 H 175.314 -0.640013 65.0503 H 0 **** 0.053
13935 H 176.08 -1.89153 64.0778 H 0 **** 0.053
13936 H 173.608 0.730659 64.1783 H 0 **** 0.053
13937 H 172.131 1.12898 62.4025 H 0 **** 0.053
13938 H 174.434 0.603046 60.4999 H 0 **** 0.053
13939 H 172.78 0.971716 60.0016 H 0 **** 0.053
13940 H 173.43 -1.56316 60.1392 H 0 **** 0.053
13941 H 171.909 -1.0893 60.8864 H 0 **** 0.053
13942 H 173.517 4.48275 62.6355 H 0 **** 0.053
13943 H 175.65 3.70145 62.743 H 0 **** 0.053
13944 H 175.972 1.34771 64.2534 H 0 **** 0.053
13945 H 175.998 1.53994 62.4952 H 0 **** 0.053
13946 H 172.32 2.17452 64.2567 H 0 **** 0.053
13947 H 175.994 5.16751 68.4823 H 0 **** 0.053
13948 H 176.053 3.47313 67.9274 H 0 **** 0.053
13949 H 177.872 4.7598 66.761 H 0 **** 0.053
13950 H 176.718 6.03696 66.3447 H 0 **** 0.053
13951 H 177.345 4.26156 64.4479 H 0 **** 0.1268
13952 H 170.127 2.19966 64.7439 H 0 **** 0.053
13953 H 169.412 6.07517 62.2035 H 0 **** 0.053
13954 H 169.217 4.71123 61.0488 H 0 **** 0.053
13955 H 171.606 4.75093 61.7535 H 0 **** 0.1268
13956 H 166.847 5.56204 61.9166 H 0 **** 0.053
13957 H 166.667 3.79761 61.7596 H 0 **** 0.053
13958 H 164.893 4.59687 63.2997 H 0 **** 0.053
13959 H 166.09 5.47223 64.2772 H 0 **** 0.053
13960 H 168.442 0.973461 65.0182 H 0 **** 0.053
13961 H 168.242 1.96382 66.4632 H 0 **** 0.053
13962 H 166.116 0.422832 64.9143 H 0 **** 0.053
13963 H 165.784 2.40347 67.2267 H 0 **** 0.053
13964 H 164.501 1.30318 66.7105 H 0 **** 0.053
13965 H 164.413 3.65021 65.6563 H 0 **** 0.053
13966 H 164.362 2.28404 64.5123 H 0 **** 0.053
13967 H 168.099 4.44628 66.3312 H 0 **** 0.053
13968 H 166.763 6.65677 71.1059 H 0 **** 0.053
13969 H 166.356 7.64931 73.1981 H 0 **** 0.053
13970 H 174.298 6.48185 71.2168 H 0 **** 0.053
13971 H 165.618 8.88549 78.4966 H 0 **** 0.053
13972 H 165.075 7.8548 76.4919 H 0 **** 0.053
13973 H 165.188 10.6301 75.2433 H 0 **** 0.053
13974 H 162.935 9.96679 76.0123 H 0 **** 0.053
13975 H 162.891 8.22461 75.6504 H 0 **** 0.053
13976 H 163.135 7.82882 78.1987 H 0 **** 0.053
13977 H 161.581 8.54065 77.7428 H 0 **** 0.053
13978 H 162.178 10.7019 78.4816 H 0 **** 0.053
13979 H 164.165 11.3877 77.6359 H 0 **** 0.053
13980 H 165.454 10.4562 80.2267 H 0 **** 0.053
13981 H 165.727 11.9834 79.3527 H 0 **** 0.053
13982 H 163.354 12.6249 79.925 H 0 **** 0.053
13983 H 164.298 12.3744 81.3914 H 0 **** 0.053
13984 H 161.85 11.1871 81.0397 H 0 **** 0.053
13985 H 163.101 10.4174 82.004 H 0 **** 0.053
13986 H 163.526 8.93496 80.3424 H 0 **** 0.353
13987 H 176.69 9.35394 73.3313 H 0 **** 0.053
13988 H 177.19 7.0675 72.4912 H 0 **** 0.053
13989 H 175.467 5.81906 74.6533 H 0 **** 0.053
13990 H 176.728 5.09232 73.6745 H 0 **** 0.053
13991 H 177.801 5.20908 75.8018 H 0 **** 0.053
13992 H 176.953 6.69036 76.265 H 0 **** 0.053
13993 H 179.128 6.56541 74.1036 H 0 **** 0.053
13994 H 179.44 7.09106 75.7712 H 0 **** 0.053
13995 H 178.989 8.94093 73.8944 H 0 **** 0.053
13996 H 178.223 9.13589 75.4867 H 0 **** 0.053
13997 H 175.237 9.60968 77.2038 H 0 **** 0.053
13998 H 174.745 10.6547 79.3479 H 0 **** 0.053
13999 H 167.28 10.4312 79.3037 H 0 **** 0.053
14000 H 166.912 11.9313 81.253 H 0 **** 0.053
14001 H 168.176 13.3929 82.5004 H 0 **** 0.053
14002 H 168.162 11.1385 84.598 H 0 **** 0.053
14003 H 165.782 12.5846 83.3597 H 0 **** 0.053
14004 H 165.663 11.6903 84.8932 H 0 **** 0.053
14005 H 165.153 10.4465 82.5392 H 0 **** 0.053
14006 H 165.892 9.58552 83.8967 H 0 **** 0.053
14007 H 167.009 9.36551 81.5038 H 0 **** 0.053
14008 H 168.092 9.64441 82.8714 H 0 **** 0.053
14009 H 167.685 -0.816441 66.4554 H 0 **** 0.053
14010 H 167.368 -0.701667 68.8935 H 0 **** 0.053
14011 H 166.143 0.577759 68.7227 H 0 **** 0.053
14012 H 167.843 0.911497 68.3215 H 0 **** 0.053
14013 H 165.468 -1.72227 65.7893 H 0 **** 0.053
14014 H 164.699 -0.897809 67.1663 H 0 **** 0.053
14015 H 165.878 -2.20094 67.4522 H 0 **** 0.053
14016 H 165.307 9.46196 73.3124 H 0 **** 0.41
14017 H 175.015 12.3899 82.6183 H 0 **** 0.053
14018 H 175.942 13.8194 84.59 H 0 **** 0.053
14019 H 175.528 15.19 86.6951 H 0 **** 0.053
14020 H 175.172 16.5374 88.8469 H 0 **** 0.053
14021 H 173.472 17.6271 90.5633 H 0 **** 0.053
14022 H 168.567 17.5274 91.1946 H 0 **** 0.053
14023 H 171.038 18.0078 91.326 H 0 **** 0.053
14024 H 166.026 13.4548 85.959 H 0 **** 0.053
14025 H 165.062 15.09 86.6033 H 0 **** 0.053
14026 H 164.819 14.0963 88.0524 H 0 **** 0.053
14027 H 163.371 16.1125 88.1808 H 0 **** 0.053
14028 H 164.758 17.159 87.863 H 0 **** 0.053
14029 H 164.442 15.3182 90.3252 H 0 **** 0.053
14030 H 164.31 17.0911 90.3782 H 0 **** 0.053
14031 C 116.684 33.3735 38.1505 C.3 0 **** 0.054
14032 C 115.404 34.172 38.5316 C.3 0 **** -0.106
14033 C 114.224 33.2151 38.8572 C.3 0 **** -0.053
14034 C 114.257 32.0383 37.8526 C.3 0 **** -0.053
14035 C 115.628 31.3025 37.9367 C.3 0 **** 0.054
14036 O 116.615 32.0441 38.6392 O.3 0 **** -0.32
14037 C 113.963 32.5343 36.4059 C.3 0 **** -0.053
14038 C 112.888 33.6863 36.3658 C.3 0 **** 0.107
14039 C 112.025 33.6536 37.621 C.3 0 **** -0.106
14040 C 112.847 33.9251 38.8917 C.3 0 **** -0.106
14041 O 112.002 33.6246 35.2432 O.3 0 **** -0.32
14042 C 112.715 33.3042 34.059 C.3 0 **** 0.107
14043 C 113.033 31.786 34.1108 C.3 0 **** -0.053
14044 C 113.539 31.3528 35.5108 C.3 0 **** -0.106
14045 C 113.956 31.2868 33.0291 C.2 0 **** 0
14046 C 115.035 32.261 32.5768 C.3 0 **** 0
14047 C 114.638 33.7368 32.5737 C.3 0 **** 0
14048 C 113.891 34.2432 33.8011 C.3 0 **** -0.053
14049 C 115.74 34.6811 32.1346 C.3 0 **** 0
14050 C 116.299 34.2656 30.7783 C.3 0 **** 0
14051 C 116.773 32.7666 30.8691 C.3 0 **** 0.16
14052 C 115.657 31.8249 31.2658 C.3 0 **** 0
14053 C 116.057 30.3255 31.1974 C.3 0 **** -0.106
14054 C 114.732 29.5836 31.2878 C.3 0 **** -0.106
14055 C 113.853 30.0758 32.432 C.2 0 **** -0.1268
14056 O 117.625 32.22 29.8382 O.3 0 **** -0.32
14057 C 117.879 33.1455 28.8031 C.3 0 **** 0.16
14058 C 118.315 34.5821 29.2449 C.3 0 **** 0
14059 C 117.463 35.2097 30.3769 C.3 0 **** 0
14060 C 113.499 35.6812 33.5815 C.2 0 **** 0
14061 C 114.697 36.5865 33.5264 C.3 0 **** -0.053
14062 C 115.373 36.1745 32.1874 C.3 0 **** 0
14063 C 114.446 38.0769 33.4652 C.2 0 **** 0
14064 C 113.203 38.4998 33.116 C.2 0 **** 0
14065 C 112.009 37.5703 32.9515 C.3 0 **** -0.106
14066 C 112.273 36.1193 33.3186 C.2 0 **** -0.1268
14067 C 112.871 39.9732 33.0643 C.3 0 **** -0.106
14068 C 114.091 40.7467 32.5852 C.3 0 **** -0.106
14069 C 115.311 40.283 33.3612 C.2 0 **** 0
14070 C 115.429 38.9808 33.7779 C.2 0 **** 0
14071 C 116.689 38.5417 34.4988 C.3 0 **** -0.106
14072 C 117.516 39.6955 35.0476 C.3 0 **** -0.053
14073 C 117.741 40.736 33.9374 C.3 0 **** -0.106
14074 C 116.395 41.33 33.5104 C.3 0 **** -0.106
14075 C 116.958 36.6559 30.2919 C.3 0 **** 0.147
14076 C 116.511 37.1001 31.6767 C.3 0 **** -0.053
14077 C 118.654 35.5351 28.0938 C.3 0 **** 0
14078 C 119.052 36.964 28.4844 C.3 0 **** 0.147
14079 S 118.114 37.9083 29.6614 S.3 0 **** -0.294
14080 C 119.497 37.8337 27.3415 C.3 0 **** -0.053
14081 C 120.622 37.1156 26.5834 C.3 0 **** 0
14082 C 120.176 35.6887 26.0816 C.3 0 **** 0
14083 C 119.77 34.8148 27.286 C.3 0 **** 0
14084 C 121.337 35.0471 25.3358 C.3 0 **** 0
14085 C 121.723 35.9179 24.1568 C.3 0 **** 0
14086 C 122.135 37.3926 24.5717 C.3 0 **** 0
14087 C 120.953 38.0486 25.3755 C.3 0 **** -0.053
14088 C 122.376 38.1904 23.2595 C.3 0 **** 0
14089 C 123.623 37.6192 22.6203 C.3 0 **** 0.16
14090 C 123.519 36.1161 22.3451 C.3 0 **** 0
14091 C 122.635 35.2331 23.1768 C.3 0 **** 0
14092 C 119.439 33.3427 26.9231 C.3 0 **** 0
14093 C 119.056 32.489 28.1277 C.3 0 **** -0.053
14094 C 121.274 33.5227 25.0931 C.3 0 **** 0
14095 C 120.165 32.6765 25.724 C.3 0 **** 0
14096 C 122.95 33.7399 23.2678 C.3 0 **** 0
14097 C 121.701 32.9673 23.7314 C.3 0 **** 0
14098 C 124.274 35.4857 21.1742 C.3 0 **** 0
14099 C 124.533 33.9614 21.3936 C.3 0 **** 0
14100 C 123.304 33.1668 21.8711 C.3 0 **** 0
14101 O 123.964 38.4268 21.5146 O.3 0 **** -0.32
14102 C 124.754 39.4509 22.1176 C.3 0 **** 0.107
14103 C 123.968 40.1227 23.2901 C.3 0 **** -0.053
14104 C 122.493 39.7335 23.2283 C.3 0 **** 0.107
14105 C 124.134 41.649 23.2477 C.3 0 **** -0.106
14106 C 125.581 42.0117 22.8697 C.3 0 **** -0.106
14107 C 125.86 41.6506 21.3985 C.3 0 **** 0.134
14108 C 125.093 40.3721 20.9649 C.3 0 **** -0.053
14109 C 125.844 39.5837 19.8631 C.3 0 **** -0.106
14110 C 126.556 40.5533 18.9291 C.3 0 **** -0.106
14111 C 127.582 41.4244 19.717 C.3 0 **** 0.081
14112 N 127.283 41.5572 21.1417 N.3 0 **** -0.727
14113 C 120.528 31.1684 25.7903 C.3 0 **** 0.16
14114 C 120.857 30.6795 24.3884 C.3 0 **** 0.16
14115 C 122.068 31.4245 23.9051 C.3 0 **** 0
14116 O 121.074 29.2885 24.2822 O.3 0 **** -0.32
14117 C 120.012 28.5866 24.9203 C.3 0 **** 0.107
14118 C 119.948 28.9979 26.3591 C.3 0 **** 0.107
14119 O 119.533 30.3533 26.3897 O.3 0 **** -0.32
14120 C 121.3 28.7942 27.0904 C.3 0 **** -0.106
14121 C 122.132 27.6405 26.4591 C.3 0 **** -0.106
14122 C 121.192 26.5637 25.8812 C.3 0 **** -0.106
14123 C 120.305 27.1195 24.7309 C.3 0 **** -0.106
14124 C 123.67 31.6197 21.9776 C.3 0 **** 0
14125 C 122.415 30.8456 22.4943 C.3 0 **** -0.053
14126 C 124.974 33.3455 20.0555 C.3 0 **** 0
14127 C 125.228 31.8281 20.1612 C.3 0 **** 0.16
14128 C 124.076 31.0342 20.6372 C.3 0 **** -0.053
14129 C 126.287 34.1186 19.6395 C.3 0 **** 0
14130 C 125.992 35.6661 19.481 C.3 0 **** 0
14131 C 125.627 36.1891 20.879 C.3 0 **** -0.053
14132 O 125.725 31.2155 19.0173 O.3 0 **** -0.32
14133 C 126.791 32.0001 18.4931 C.3 0 **** 0.16
14134 C 126.533 33.5462 18.247 C.3 0 **** 0
14135 C 127.157 36.5051 18.8865 C.3 0 **** -0.053
14136 C 127.683 35.818 17.6277 C.3 0 **** -0.053
14137 C 127.798 34.2515 17.7413 C.3 0 **** 0
14138 C 129.09 36.2303 17.3603 C.3 0 **** -0.053
14139 C 129.283 37.6958 17.6479 C.3 0 **** -0.106
14140 C 129.179 37.9112 19.1852 C.3 0 **** -0.106
14141 C 128.313 36.827 19.8586 C.3 0 **** -0.106
14142 C 128.119 33.669 16.3852 C.3 0 **** 0
14143 C 128.214 32.1143 16.3862 C.3 0 **** 0
14144 C 127.188 31.3348 17.2043 C.3 0 **** 0
14145 C 129.264 35.8665 15.888 C.3 0 **** 0
14146 C 129.321 34.3339 15.7516 C.3 0 **** 0
14147 C 118.82 39.1999 35.7244 C.3 0 **** -0.053
14148 C 119.881 38.7289 34.7181 C.3 0 **** -0.159
14149 C 119.41 40.271 36.6495 C.3 0 **** -0.159
14150 O 121.747 40.4228 24.2223 O.3 0 **** -0.57
14151 C 126.873 29.8376 16.9301 C.3 0 **** -0.053
14152 C 127.86 29.108 16.0148 C.3 0 **** -0.053
14153 C 128.255 30.006 14.8297 C.3 0 **** 0
14154 C 128.889 31.3669 15.2512 C.3 0 **** 0
14155 C 129.495 32.2948 14.2141 C.3 0 **** 0
14156 C 129.946 31.6693 12.9276 C.3 0 **** 0
14157 C 129.785 30.135 12.7813 C.3 0 **** 0
14158 C 129.234 29.2513 13.9256 C.3 0 **** -0.053
14159 C 130.452 29.4375 11.6044 C.3 0 **** -0.053
14160 C 131.355 30.2732 10.6729 C.3 0 **** -0.053
14161 C 131.256 31.828 10.7403 C.3 0 **** 0
14162 C 131.096 32.3865 12.1788 C.3 0 **** 0
14163 C 130.877 33.95 12.1827 C.3 0 **** 0
14164 C 130.718 34.4762 13.6593 C.3 0 **** 0
14165 C 129.494 33.8232 14.3329 C.3 0 **** 0
14166 C 132.094 34.6319 11.481 C.3 0 **** 0
14167 C 132.214 34.0623 10.0177 C.3 0 **** -0.053
14168 C 132.412 32.5337 10.0078 C.3 0 **** -0.053
14169 C 130.484 36.5181 15.2044 C.3 0 **** -0.053
14170 C 130.461 36.0365 13.683 C.3 0 **** 0
14171 C 131.875 36.2128 11.4482 C.3 0 **** 0.02
14172 C 131.593 36.7875 12.8811 C.3 0 **** 0
14173 C 131.463 38.3198 13.0515 C.3 0 **** -0.106
14174 C 131.684 38.9949 11.7273 C.3 0 **** -0.106
14175 C 132.96 38.4717 11.0782 C.3 0 **** -0.086
14176 C 133.02 37.0095 10.8293 C.2 0 **** 0.379
14177 O 133.891 36.546 10.1134 O.2 0 **** -0.419
14178 H 117.578 33.8284 38.5975 H 0 **** 0.053
14179 H 116.84 33.3863 37.0607 H 0 **** 0.053
14180 H 115.578 34.8326 39.4036 H 0 **** 0.053
14181 H 115.126 34.8545 37.7069 H 0 **** 0.053
14182 H 114.429 32.7943 39.8549 H 0 **** 0.053
14183 H 113.441 31.3407 38.1186 H 0 **** 0.053
14184 H 115.996 31.0305 36.9322 H 0 **** 0.053
14185 H 115.517 30.3628 38.489 H 0 **** 0.053
14186 H 114.922 32.9143 36.0127 H 0 **** 0.053
14187 H 113.402 34.6651 36.3577 H 0 **** 0.053
14188 H 111.544 32.6584 37.6703 H 0 **** 0.053
14189 H 111.21 34.3858 37.5089 H 0 **** 0.053
14190 H 112.274 33.5997 39.7708 H 0 **** 0.053
14191 H 112.992 35.0093 38.9999 H 0 **** 0.053
14192 H 112.006 33.424 33.2371 H 0 **** 0.053
14193 H 112.083 31.2653 33.9457 H 0 **** 0.053
14194 H 114.356 30.6 35.467 H 0 **** 0.053
14195 H 112.696 30.8547 36.0217 H 0 **** 0.053
14196 H 114.603 34.2452 34.6407 H 0 **** 0.053
14197 H 116.571 30.1138 30.2391 H 0 **** 0.053
14198 H 116.762 30.0584 32.0118 H 0 **** 0.053
14199 H 114.895 28.5055 31.3609 H 0 **** 0.053
14200 H 114.18 29.7706 30.3485 H 0 **** 0.053
14201 H 113.11 29.3566 32.7628 H 0 **** 0.1268
14202 H 115.38 36.335 34.3731 H 0 **** 0.053
14203 H 111.62 37.6219 31.8911 H 0 **** 0.053
14204 H 111.17 37.941 33.6058 H 0 **** 0.053
14205 H 111.41 35.4601 33.3235 H 0 **** 0.1268
14206 H 111.986 40.1707 32.4215 H 0 **** 0.053
14207 H 112.601 40.2876 34.0885 H 0 **** 0.053
14208 H 113.937 41.8392 32.6875 H 0 **** 0.053
14209 H 114.261 40.5497 31.5094 H 0 **** 0.053
14210 H 116.403 37.8953 35.3417 H 0 **** 0.053
14211 H 117.323 37.919 33.8378 H 0 **** 0.053
14212 H 116.909 40.1799 35.8399 H 0 **** 0.053
14213 H 118.22 40.2491 33.0727 H 0 **** 0.053
14214 H 118.416 41.5407 34.2625 H 0 **** 0.053
14215 H 116.517 41.9041 32.5625 H 0 **** 0.053
14216 H 116.062 42.064 34.2787 H 0 **** 0.053
14217 H 116.204 38.2014 31.6312 H 0 **** 0.053
14218 H 119.789 38.892 27.6142 H 0 **** 0.053
14219 H 121.321 39.0204 25.8356 H 0 **** 0.053
14220 H 118.754 31.4305 27.8761 H 0 **** 0.053
14221 H 125.682 38.9944 22.4995 H 0 **** 0.053
14222 H 124.396 39.7879 24.2577 H 0 **** 0.053
14223 H 122.114 40.0043 22.2526 H 0 **** 0.053
14224 H 123.438 42.0764 22.4928 H 0 **** 0.053
14225 H 123.839 42.0911 24.227 H 0 **** 0.053
14226 H 126.248 41.4391 23.5353 H 0 **** 0.053
14227 H 125.795 43.0777 23.046 H 0 **** 0.053
14228 H 125.471 42.4797 20.7853 H 0 **** 0.053
14229 H 124.112 40.6827 20.5512 H 0 **** 0.053
14230 H 126.613 38.966 20.3499 H 0 **** 0.053
14231 H 125.156 38.9055 19.3282 H 0 **** 0.053
14232 H 125.785 41.1908 18.4605 H 0 **** 0.053
14233 H 127.052 40.0211 18.0991 H 0 **** 0.053
14234 H 127.618 42.4337 19.2767 H 0 **** 0.053
14235 H 128.6 41.0127 19.6019 H 0 **** 0.053
14236 H 127.652 40.7772 21.6479 H 0 **** 0.353
14237 H 119.083 28.8835 24.4339 H 0 **** 0.053
14238 H 119.192 28.4092 26.8722 H 0 **** 0.053
14239 H 121.922 29.7145 27.0774 H 0 **** 0.053
14240 H 121.141 28.5867 28.1697 H 0 **** 0.053
14241 H 122.83 27.2051 27.2031 H 0 **** 0.053
14242 H 122.77 28.0429 25.6465 H 0 **** 0.053
14243 H 120.534 26.2228 26.6993 H 0 **** 0.053
14244 H 121.763 25.6829 25.5359 H 0 **** 0.053
14245 H 119.39 26.5083 24.6213 H 0 **** 0.053
14246 H 120.861 27.0283 23.7692 H 0 **** 0.053
14247 H 122.684 29.7356 22.5666 H 0 **** 0.053
14248 H 124.254 29.9417 20.7172 H 0 **** 0.053
14249 H 125.503 37.3054 20.7914 H 0 **** 0.053
14250 H 126.692 37.4415 18.6111 H 0 **** 0.053
14251 H 127.005 36.073 16.7892 H 0 **** 0.053
14252 H 129.818 35.6547 17.9702 H 0 **** 0.053
14253 H 128.493 38.2639 17.121 H 0 **** 0.053
14254 H 130.256 38.1023 17.2964 H 0 **** 0.053
14255 H 128.739 38.9069 19.394 H 0 **** 0.053
14256 H 130.193 37.9267 19.629 H 0 **** 0.053
14257 H 127.959 37.1816 20.8434 H 0 **** 0.053
14258 H 128.897 35.9161 20.044 H 0 **** 0.053
14259 H 118.551 38.3345 36.3595 H 0 **** 0.053
14260 H 120.741 38.2777 35.2379 H 0 **** 0.053
14261 H 120.257 39.5754 34.1206 H 0 **** 0.053
14262 H 119.487 37.9758 34.0168 H 0 **** 0.053
14263 H 118.682 40.5808 37.416 H 0 **** 0.053
14264 H 119.7 41.1677 36.0798 H 0 **** 0.053
14265 H 120.305 39.897 37.17 H 0 **** 0.053
14266 H 120.845 40.1259 24.1186 H 0 **** 0.41
14267 H 126.43 29.2568 17.7872 H 0 **** 0.053
14268 H 127.46 28.1091 15.688 H 0 **** 0.053
14269 H 128.849 28.2613 13.5605 H 0 **** 0.053
14270 H 130.274 28.3465 11.4299 H 0 **** 0.053
14271 H 131.648 29.807 9.70196 H 0 **** 0.053
14272 H 133.036 34.5509 9.42981 H 0 **** 0.053
14273 H 132.561 32.1142 8.98632 H 0 **** 0.053
14274 H 130.426 37.6653 15.2563 H 0 **** 0.053
14275 H 130.485 38.5975 13.4823 H 0 **** 0.053
14276 H 132.233 38.5657 13.781 H 0 **** 0.053
14277 H 131.749 40.0728 11.8648 H 0 **** 0.053
14278 H 130.81 38.8045 11.0718 H 0 **** 0.053
14279 H 133.828 38.6478 11.7194 H 0 **** 0.053
14280 H 133.166 38.8567 10.0819 H 0 **** 0.053
14281 C 31.214 176.76 79.5049 C.2 0 **** 0
14282 C 30.5727 175.568 79.2054 C.2 0 **** 0
14283 C 29.6876 175.506 78.1409 C.2 0 **** 0
14284 C 29.4686 176.631 77.3847 C.2 0 **** 0
14285 C 30.1499 177.814 77.6453 C.2 0 **** 0
14286 C 31.0327 177.873 78.7036 C.2 0 **** 0
14287 C 28.489 176.601 76.2288 C.3 0 **** -0.106
14288 C 27.6329 175.358 76.0279 C.2 0 **** 0
14289 C 27.8441 174.234 76.7776 C.2 0 **** 0
14290 C 28.9624 174.203 77.817 C.3 0 **** -0.106
14291 C 27.0244 173.117 76.5904 C.2 0 **** 0
14292 C 25.9571 173.151 75.7148 C.2 0 **** 0
14293 C 25.8061 174.253 74.8815 C.2 0 **** 0
14294 C 26.6296 175.374 75.0437 C.2 0 **** 0
14295 C 26.4418 176.496 74.2516 C.2 0 **** -0.1268
14296 C 25.3919 176.661 73.372 C.2 0 **** 0
14297 C 24.4794 175.548 73.3403 C.2 0 **** 0
14298 C 24.8234 174.314 73.898 C.2 0 **** 0.042
14299 C 23.2114 175.627 72.4666 C.3 0 **** 0
14300 C 22.9896 176.883 71.6197 C.3 0 **** 0
14301 C 24.1346 177.914 71.5529 C.2 0 **** 0
14302 C 25.2638 177.807 72.4295 C.2 0 **** 0
14303 C 21.5077 177.268 71.4239 C.3 0 **** -0.106
14304 C 20.7238 177.217 72.739 C.3 0 **** -0.053
14305 C 20.7283 175.785 73.3573 C.3 0 **** -0.053
14306 C 21.9023 174.902 72.8601 C.3 0 **** -0.106
14307 C 26.2897 178.753 72.2328 C.2 0 **** 0.042
14308 C 26.1775 179.73 71.2664 C.2 0 **** 0.052
14309 C 25.0809 179.783 70.4191 C.2 0 **** 0.052
14310 C 24.0955 178.838 70.5243 C.2 0 **** 0.042
14311 C 24.9368 180.833 69.3485 C.2 0 **** 0.367
14312 C 26.043 181.83 69.2429 C.2 0 **** 0
14313 C 27.1117 181.775 70.0467 C.2 0 **** 0
14314 C 27.2737 180.752 71.1071 C.2 0 **** 0.367
14315 C 28.2221 182.796 69.9407 C.3 0 **** -0.106
14316 C 27.6109 184.171 69.573 C.3 0 **** -0.106
14317 C 26.7233 184.062 68.333 C.2 0 **** 0
14318 C 25.9307 182.902 68.1739 C.2 0 **** 0.2405
14319 N 25.1022 182.742 67.1204 N.2 0 **** -0.481
14320 C 24.9721 183.753 66.2678 C.2 0 **** 0.2405
14321 C 25.7584 184.925 66.356 C.2 0 **** 0
14322 C 26.6447 185.061 67.3949 C.2 0 **** 0
14323 C 27.5002 186.312 67.5521 C.3 0 **** -0.106
14324 C 27.5531 187.161 66.2762 C.3 0 **** -0.106
14325 C 26.1579 187.317 65.6805 C.3 0 **** -0.106
14326 C 25.6226 185.939 65.2473 C.3 0 **** -0.053
14327 C 24.1426 186.026 64.7898 C.3 0 **** -0.106
14328 C 23.6262 184.649 64.4695 C.2 0 **** 0
14329 C 24.0322 183.548 65.2264 C.2 0 **** 0
14330 C 23.4998 182.279 64.9378 C.2 0 **** -0.1268
14331 C 22.5633 182.144 63.9311 C.2 0 **** -0.1268
14332 C 22.1242 183.236 63.2048 C.2 0 **** 0
14333 C 22.6483 184.497 63.4917 C.2 0 **** 0
14334 C 31.8182 179.132 78.9686 C.3 0 **** -0.106
14335 C 31.0012 180.129 79.8168 C.3 0 **** -0.159
14336 C 32.1138 176.831 80.7114 C.3 0 **** -0.159
14337 C 29.8672 179.003 76.7563 C.3 0 **** -0.159
14338 C 30.828 174.337 80.0402 C.3 0 **** -0.159
14339 C 27.3225 171.874 77.4297 C.3 0 **** -0.159
14340 C 25.0118 171.973 75.7354 C.3 0 **** -0.159
14341 O 24.1243 173.202 73.5225 O.3 0 **** -0.452
14342 C 19.4627 174.98 73.0568 C.3 0 **** -0.159
14343 C 19.3197 177.77 72.4685 C.3 0 **** -0.159
14344 O 23.0417 178.762 69.6541 O.3 0 **** -0.452
14345 O 27.4158 178.709 72.9883 O.3 0 **** -0.452
14346 O 28.2395 180.736 71.8004 O.2 0 **** -0.419
14347 O 23.9607 180.879 68.6582 O.2 0 **** -0.419
14348 C 22.138 185.707 62.7277 C.3 0 **** -0.159
14349 C 21.0715 183.014 62.1373 C.3 0 **** -0.159
14350 H 27.7946 177.462 76.365 H 0 **** 0.053
14351 H 29.0548 176.794 75.2846 H 0 **** 0.053
14352 H 29.7264 173.458 77.4873 H 0 **** 0.053
14353 H 28.531 173.811 78.7648 H 0 **** 0.053
14354 H 27.1585 177.271 74.404 H 0 **** 0.1268
14355 H 21.4077 178.269 70.9997 H 0 **** 0.053
14356 H 21.0988 176.551 70.7086 H 0 **** 0.053
14357 H 21.2201 177.898 73.4534 H 0 **** 0.053
14358 H 20.8183 175.9 74.4456 H 0 **** 0.053
14359 H 21.6016 174.397 71.9376 H 0 **** 0.053
14360 H 22.0869 174.127 73.6138 H 0 **** 0.053
14361 H 28.8001 182.895 70.8775 H 0 **** 0.053
14362 H 28.9318 182.464 69.163 H 0 **** 0.053
14363 H 28.448 184.88 69.4524 H 0 **** 0.053
14364 H 27.024 184.543 70.44 H 0 **** 0.053
14365 H 27.0951 186.931 68.3757 H 0 **** 0.053
14366 H 28.5394 186.059 67.8298 H 0 **** 0.053
14367 H 28.2092 186.674 65.5298 H 0 **** 0.053
14368 H 28.0022 188.149 66.4877 H 0 **** 0.053
14369 H 26.166 188.006 64.8143 H 0 **** 0.053
14370 H 25.4789 187.759 66.4325 H 0 **** 0.053
14371 H 26.2329 185.602 64.374 H 0 **** 0.053
14372 H 23.5367 186.482 65.6059 H 0 **** 0.053
14373 H 24.0835 186.726 63.9283 H 0 **** 0.053
14374 H 23.8131 181.394 65.5064 H 0 **** 0.1268
14375 H 22.1474 181.146 63.713 H 0 **** 0.1268
14376 H 32.1388 179.629 78.0323 H 0 **** 0.053
14377 H 32.7731 178.927 79.4844 H 0 **** 0.053
14378 H 30.7096 179.683 80.782 H 0 **** 0.053
14379 H 30.0808 180.441 79.2963 H 0 **** 0.053
14380 H 31.5805 181.048 80.0393 H 0 **** 0.053
14381 H 31.8033 176.142 81.5215 H 0 **** 0.053
14382 H 32.1154 177.829 81.188 H 0 **** 0.053
14383 H 33.1691 176.585 80.4597 H 0 **** 0.053
14384 H 28.7999 179.314 76.8167 H 0 **** 0.053
14385 H 30.0806 178.781 75.6885 H 0 **** 0.053
14386 H 30.4437 179.909 76.9934 H 0 **** 0.053
14387 H 30.6455 173.389 79.4982 H 0 **** 0.053
14388 H 30.1843 174.316 80.9476 H 0 **** 0.053
14389 H 31.8792 174.267 80.3793 H 0 **** 0.053
14390 H 27.0747 170.937 76.9017 H 0 **** 0.053
14391 H 26.7615 171.879 78.3924 H 0 **** 0.053
14392 H 28.4006 171.764 77.6868 H 0 **** 0.053
14393 H 23.9469 172.29 75.6761 H 0 **** 0.053
14394 H 25.036 171.366 76.6814 H 0 **** 0.053
14395 H 25.1893 171.249 74.8986 H 0 **** 0.053
14396 H 23.686 173.372 72.6848 H 0 **** 0.41
14397 H 18.571 175.443 73.4996 H 0 **** 0.053
14398 H 19.5451 173.959 73.4762 H 0 **** 0.053
14399 H 19.3019 174.874 71.9657 H 0 **** 0.053
14400 H 19.3749 178.813 72.1032 H 0 **** 0.053
14401 H 18.7066 177.773 73.3821 H 0 **** 0.053
14402 H 18.7934 177.183 71.6901 H 0 **** 0.053
14403 H 23.0704 179.539 69.0753 H 0 **** 0.41
14404 H 28.0007 179.445 72.7564 H 0 **** 0.41
14405 H 21.8457 186.525 63.4126 H 0 **** 0.053
14406 H 21.2395 185.499 62.116 H 0 **** 0.053
14407 H 22.9043 186.106 62.0315 H 0 **** 0.053
14408 H 20.1332 183.552 62.3657 H 0 **** 0.053
14409 H 20.8028 181.948 62.0341 H 0 **** 0.053
14410 H 21.4166 183.348 61.1433 H 0 **** 0.053
14411 C 33.5467 168.6 90.3566 C.2 0 **** 0
14412 C 34.8387 168.098 90.3346 C.2 0 **** 0
14413 C 35.9164 168.951 90.5082 C.2 0 **** 0
14414 C 35.686 170.289 90.7153 C.2 0 **** 0
14415 C 34.392 170.79 90.7938 C.2 0 **** 0
14416 C 33.3202 169.938 90.6235 C.2 0 **** 0
14417 C 36.8445 171.251 90.8856 C.3 0 **** -0.106
14418 C 38.2599 170.739 90.6561 C.2 0 **** 0
14419 C 38.4974 169.408 90.4483 C.2 0 **** 0
14420 C 37.3426 168.409 90.4658 C.3 0 **** -0.106
14421 C 39.8044 168.97 90.2132 C.2 0 **** 0
14422 C 40.8514 169.865 90.1122 C.2 0 **** 0
14423 C 40.6271 171.201 90.4237 C.2 0 **** 0
14424 C 39.3271 171.653 90.6794 C.2 0 **** 0
14425 C 39.0943 172.996 90.9337 C.2 0 **** -0.1268
14426 C 40.0495 173.986 90.8258 C.2 0 **** 0
14427 C 41.3424 173.503 90.415 C.2 0 **** 0
14428 C 41.6528 172.141 90.452 C.2 0 **** 0.042
14429 C 42.4861 174.507 90.1684 C.3 0 **** 0
14430 C 42.2164 175.993 90.4178 C.3 0 **** 0
14431 C 40.8732 176.378 91.0698 C.2 0 **** 0
14432 C 39.8324 175.404 91.224 C.2 0 **** 0
14433 C 42.9977 176.948 89.4906 C.3 0 **** -0.106
14434 C 42.9326 176.505 88.0256 C.3 0 **** -0.053
14435 C 43.5537 175.09 87.8225 C.3 0 **** -0.053
14436 C 43.5937 174.241 89.1206 C.3 0 **** -0.106
14437 C 38.6766 175.839 91.9032 C.2 0 **** 0.042
14438 C 38.5668 177.136 92.3573 C.2 0 **** 0.052
14439 C 39.6074 178.041 92.2133 C.2 0 **** 0.052
14440 C 40.7789 177.64 91.6277 C.2 0 **** 0.042
14441 C 39.519 179.46 92.7095 C.2 0 **** 0.367
14442 C 38.2393 179.854 93.3693 C.2 0 **** 0
14443 C 37.2365 178.982 93.5256 C.2 0 **** 0
14444 C 37.3008 177.581 93.044 C.2 0 **** 0.367
14445 C 35.9392 179.393 94.1843 C.3 0 **** -0.106
14446 C 35.6235 180.862 93.8056 C.3 0 **** -0.106
14447 C 36.8119 181.773 94.1117 C.2 0 **** 0
14448 C 38.1157 181.278 93.8819 C.2 0 **** 0.2405
14449 N 39.2151 182.03 94.1024 N.2 0 **** -0.481
14450 C 39.0437 183.299 94.4584 C.2 0 **** 0.2405
14451 C 37.7678 183.844 94.7325 C.2 0 **** 0
14452 C 36.6543 183.059 94.5651 C.2 0 **** 0
14453 C 35.2538 183.601 94.8237 C.3 0 **** -0.106
14454 C 35.2595 184.904 95.6331 C.3 0 **** -0.106
14455 C 36.3108 185.865 95.0894 C.3 0 **** -0.106
14456 C 37.7135 185.253 95.2666 C.3 0 **** -0.053
14457 C 38.7997 186.121 94.5777 C.3 0 **** -0.106
14458 C 40.1391 185.442 94.6873 C.2 0 **** 0
14459 C 40.236 184.052 94.6029 C.2 0 **** 0
14460 C 41.503 183.445 94.6604 C.2 0 **** -0.1268
14461 C 42.6335 184.231 94.7703 C.2 0 **** -0.1268
14462 C 42.5487 185.612 94.8116 C.2 0 **** 0
14463 C 41.2934 186.216 94.7513 C.2 0 **** 0
14464 C 31.9105 170.455 90.757 C.3 0 **** -0.106
14465 C 31.4148 171.068 89.4302 C.3 0 **** -0.159
14466 C 32.39 167.672 90.0898 C.3 0 **** -0.159
14467 C 34.221 172.271 91.0425 C.3 0 **** -0.159
14468 C 35.0778 166.624 90.1137 C.3 0 **** -0.159
14469 C 40.022 167.469 90.0202 C.3 0 **** -0.159
14470 C 42.1819 169.317 89.6531 C.3 0 **** -0.159
14471 O 42.9655 171.762 90.4287 O.3 0 **** -0.452
14472 C 44.9966 175.117 87.3144 C.3 0 **** -0.159
14473 C 43.5924 177.598 87.1768 C.3 0 **** -0.159
14474 O 41.8848 178.443 91.5515 O.3 0 **** -0.452
14475 O 37.6537 174.978 92.1331 O.3 0 **** -0.452
14476 O 36.3882 176.837 93.2009 O.2 0 **** -0.419
14477 O 40.4179 180.231 92.5356 O.2 0 **** -0.419
14478 C 41.1964 187.733 94.7514 C.3 0 **** -0.159
14479 C 43.8349 186.408 94.9001 C.3 0 **** -0.159
14480 H 36.6783 172.093 90.1749 H 0 **** 0.053
14481 H 36.7907 171.686 91.9136 H 0 **** 0.053
14482 H 37.4787 167.732 91.3433 H 0 **** 0.053
14483 H 37.4351 167.771 89.5595 H 0 **** 0.053
14484 H 38.0839 173.232 91.181 H 0 **** 0.1268
14485 H 42.6209 177.97 89.5611 H 0 **** 0.053
14486 H 44.0306 176.939 89.8456 H 0 **** 0.053
14487 H 41.8673 176.454 87.7368 H 0 **** 0.053
14488 H 42.9337 174.564 87.0847 H 0 **** 0.053
14489 H 44.5176 174.462 89.6626 H 0 **** 0.053
14490 H 43.626 173.183 88.8341 H 0 **** 0.053
14491 H 35.089 178.752 93.8879 H 0 **** 0.053
14492 H 36.0504 179.287 95.2774 H 0 **** 0.053
14493 H 34.7018 181.147 94.3413 H 0 **** 0.053
14494 H 35.369 180.903 92.725 H 0 **** 0.053
14495 H 34.7481 183.784 93.8562 H 0 **** 0.053
14496 H 34.6316 182.87 95.3704 H 0 **** 0.053
14497 H 35.4885 184.684 96.6932 H 0 **** 0.053
14498 H 34.2571 185.371 95.6215 H 0 **** 0.053
14499 H 36.2614 186.846 95.6011 H 0 **** 0.053
14500 H 36.1226 186.056 94.0172 H 0 **** 0.053
14501 H 37.9345 185.232 96.3619 H 0 **** 0.053
14502 H 38.5274 186.26 93.5067 H 0 **** 0.053
14503 H 38.7833 187.133 95.0387 H 0 **** 0.053
14504 H 41.6071 182.353 94.6122 H 0 **** 0.1268
14505 H 43.6232 183.748 94.8115 H 0 **** 0.1268
14506 H 31.8168 171.209 91.5628 H 0 **** 0.053
14507 H 31.2045 169.664 91.0684 H 0 **** 0.053
14508 H 31.4455 170.326 88.6149 H 0 **** 0.053
14509 H 32.0344 171.928 89.1283 H 0 **** 0.053
14510 H 30.3694 171.427 89.5106 H 0 **** 0.053
14511 H 32.6553 166.836 89.4132 H 0 **** 0.053
14512 H 31.5442 168.174 89.5836 H 0 **** 0.053
14513 H 31.9917 167.222 91.0258 H 0 **** 0.053
14514 H 34.6718 172.877 90.225 H 0 **** 0.053
14515 H 34.7075 172.589 91.9895 H 0 **** 0.053
14516 H 33.1783 172.614 91.1129 H 0 **** 0.053
14517 H 36.0354 166.263 90.536 H 0 **** 0.053
14518 H 35.0887 166.368 89.031 H 0 **** 0.053
14519 H 34.3051 165.994 90.5943 H 0 **** 0.053
14520 H 41.0079 167.133 90.3869 H 0 **** 0.053
14521 H 39.9401 167.172 88.9496 H 0 **** 0.053
14522 H 39.2951 166.842 90.5844 H 0 **** 0.053
14523 H 42.6813 169.991 88.9218 H 0 **** 0.053
14524 H 42.1231 168.345 89.0925 H 0 **** 0.053
14525 H 42.9036 169.146 90.494 H 0 **** 0.053
14526 H 43.5145 172.494 90.72 H 0 **** 0.41
14527 H 45.0677 175.569 86.3162 H 0 **** 0.053
14528 H 45.399 174.089 87.2391 H 0 **** 0.053
14529 H 45.6564 175.678 88.0052 H 0 **** 0.053
14530 H 43.0644 178.562 87.303 H 0 **** 0.053
14531 H 43.5666 177.345 86.1064 H 0 **** 0.053
14532 H 44.6463 177.766 87.4761 H 0 **** 0.053
14533 H 41.6371 179.329 91.8553 H 0 **** 0.41
14534 H 36.9225 175.437 92.5721 H 0 **** 0.41
14535 H 40.5563 188.098 93.9266 H 0 **** 0.053
14536 H 42.1708 188.24 94.6155 H 0 **** 0.053
14537 H 40.7742 188.117 95.7031 H 0 **** 0.053
14538 H 43.9848 187.048 94.0113 H 0 **** 0.053
14539 H 44.7234 185.756 94.9688 H 0 **** 0.053
14540 H 43.8538 187.06 95.7909 H 0 **** 0.053
14541 C 42.3718 119.158 56.3201 C.2 0 **** 0
14542 C 42.2268 119.868 57.5016 C.2 0 **** 0
14543 C 41.3692 119.405 58.4867 C.2 0 **** 0
14544 C 40.6831 118.234 58.2825 C.2 0 **** 0
14545 C 40.8666 117.488 57.124 C.2 0 **** 0
14546 C 41.7222 117.949 56.145 C.2 0 **** 0
14547 C 39.721 117.713 59.3318 C.3 0 **** -0.106
14548 C 39.4035 118.593 60.5333 C.2 0 **** 0
14549 C 40.0815 119.762 60.743 C.2 0 **** 0
14550 C 41.1883 120.192 59.7824 C.3 0 **** -0.106
14551 C 39.7502 120.563 61.8401 C.2 0 **** 0
14552 C 38.7004 120.235 62.675 C.2 0 **** 0
14553 C 38.0802 119 62.5223 C.2 0 **** 0
14554 C 38.4125 118.177 61.4393 C.2 0 **** 0
14555 C 37.7542 116.971 61.2537 C.2 0 **** -0.1268
14556 C 36.6694 116.554 61.997 C.2 0 **** 0
14557 C 36.2608 117.495 63.0076 C.2 0 **** 0
14558 C 37.0907 118.551 63.392 C.2 0 **** 0.042
14559 C 35.0087 117.202 63.8582 C.3 0 **** 0
14560 C 34.2636 115.885 63.6266 C.3 0 **** 0
14561 C 34.9115 114.852 62.6833 C.2 0 **** 0
14562 C 36.0467 115.206 61.8829 C.2 0 **** 0
14563 C 32.7394 115.965 63.8573 C.3 0 **** -0.106
14564 C 32.1218 117.195 63.1859 C.3 0 **** -0.053
14565 C 32.721 118.521 63.7477 C.3 0 **** -0.053
14566 C 34.1124 118.337 64.4091 C.3 0 **** -0.106
14567 C 36.6101 114.166 61.1161 C.2 0 **** 0.042
14568 C 36.0661 112.9 61.1308 C.2 0 **** 0.052
14569 C 34.9838 112.589 61.9401 C.2 0 **** 0.052
14570 C 34.4518 113.549 62.7595 C.2 0 **** 0.042
14571 C 34.3763 111.212 61.984 C.2 0 **** 0.367
14572 C 34.9994 110.183 61.1006 C.2 0 **** 0
14573 C 36.0535 110.471 60.3284 C.2 0 **** 0
14574 C 36.6671 111.819 60.2677 C.2 0 **** 0.367
14575 C 36.6715 109.426 59.4276 C.3 0 **** -0.106
14576 C 35.5519 108.505 58.881 C.3 0 **** -0.106
14577 C 34.6999 107.944 60.0197 C.2 0 **** 0
14578 C 34.412 108.783 61.1202 C.2 0 **** 0.2405
14579 N 33.6447 108.371 62.1519 N.2 0 **** -0.481
14580 C 33.0793 107.171 62.0702 C.2 0 **** 0.2405
14581 C 33.3524 106.275 61.0111 C.2 0 **** 0
14582 C 34.1802 106.674 59.992 C.2 0 **** 0
14583 C 34.4906 105.758 58.8148 C.3 0 **** -0.106
14584 C 34.1284 104.293 59.0888 C.3 0 **** -0.106
14585 C 32.7475 104.195 59.7285 C.3 0 **** -0.106
14586 C 32.7634 104.889 61.1037 C.3 0 **** -0.053
14587 C 31.3401 104.96 61.7173 C.3 0 **** -0.106
14588 C 31.3802 105.73 63.0102 C.2 0 **** 0
14589 C 32.2289 106.829 63.1519 C.2 0 **** 0
14590 C 32.2143 107.561 64.3528 C.2 0 **** -0.1268
14591 C 31.3423 107.201 65.362 C.2 0 **** -0.1268
14592 C 30.468 106.139 65.2127 C.2 0 **** 0
14593 C 30.4785 105.414 64.0214 C.2 0 **** 0
14594 C 41.9724 117.128 54.9058 C.3 0 **** -0.106
14595 C 40.8876 117.386 53.8385 C.3 0 **** -0.159
14596 C 43.2486 119.714 55.2289 C.3 0 **** -0.159
14597 C 40.0889 116.2 56.9819 C.3 0 **** -0.159
14598 C 42.9937 121.15 57.7167 C.3 0 **** -0.159
14599 C 40.5607 121.842 62.0502 C.3 0 **** -0.159
14600 C 38.2916 121.263 63.7029 C.3 0 **** -0.159
14601 O 36.8548 119.177 64.5833 O.3 0 **** -0.452
14602 C 31.8522 119.187 64.8165 C.3 0 **** -0.159
14603 C 30.5991 117.093 63.3321 C.3 0 **** -0.159
14604 O 33.4572 113.288 63.663 O.3 0 **** -0.452
14605 O 37.7111 114.395 60.3574 O.3 0 **** -0.452
14606 O 37.6022 112.037 59.5681 O.2 0 **** -0.419
14607 O 33.4167 110.983 62.6618 O.2 0 **** -0.419
14608 C 29.4908 104.274 63.8345 C.3 0 **** -0.159
14609 C 29.5192 105.824 66.3518 C.3 0 **** -0.159
14610 H 38.7571 117.499 58.8149 H 0 **** 0.053
14611 H 40.1067 116.733 59.7057 H 0 **** 0.053
14612 H 42.159 120.172 60.3342 H 0 **** 0.053
14613 H 41.0047 121.254 59.5101 H 0 **** 0.053
14614 H 38.122 116.386 60.441 H 0 **** 0.1268
14615 H 32.232 115.074 63.4831 H 0 **** 0.053
14616 H 32.5978 116.01 64.9395 H 0 **** 0.053
14617 H 32.3595 117.145 62.108 H 0 **** 0.053
14618 H 32.8288 119.214 62.9036 H 0 **** 0.053
14619 H 33.9752 118.069 65.4605 H 0 **** 0.053
14620 H 34.6312 119.303 64.3827 H 0 **** 0.053
14621 H 37.2239 109.868 58.5782 H 0 **** 0.053
14622 H 37.4034 108.844 60.0139 H 0 **** 0.053
14623 H 36.0388 107.724 58.2714 H 0 **** 0.053
14624 H 34.9233 109.09 58.1758 H 0 **** 0.053
14625 H 33.9304 106.103 57.9246 H 0 **** 0.053
14626 H 35.5617 105.793 58.5458 H 0 **** 0.053
14627 H 34.8735 103.845 59.7736 H 0 **** 0.053
14628 H 34.1708 103.703 58.1544 H 0 **** 0.053
14629 H 32.4327 103.14 59.8439 H 0 **** 0.053
14630 H 31.9995 104.681 59.0765 H 0 **** 0.053
14631 H 33.4002 104.271 61.7833 H 0 **** 0.053
14632 H 30.6578 105.462 60.9939 H 0 **** 0.053
14633 H 30.9593 103.922 61.838 H 0 **** 0.053
14634 H 32.8823 108.42 64.4968 H 0 **** 0.1268
14635 H 31.3332 107.781 66.299 H 0 **** 0.1268
14636 H 42.0154 116.043 55.1249 H 0 **** 0.053
14637 H 42.9627 117.334 54.462 H 0 **** 0.053
14638 H 40.8537 118.451 53.5571 H 0 **** 0.053
14639 H 39.8871 117.101 54.2035 H 0 **** 0.053
14640 H 41.0772 116.806 52.9127 H 0 **** 0.053
14641 H 43.2845 120.821 55.2247 H 0 **** 0.053
14642 H 42.8938 119.449 54.2147 H 0 **** 0.053
14643 H 44.2976 119.354 55.3154 H 0 **** 0.053
14644 H 38.9909 116.383 56.9867 H 0 **** 0.053
14645 H 40.3041 115.493 57.812 H 0 **** 0.053
14646 H 40.2822 115.639 56.0552 H 0 **** 0.053
14647 H 43.1604 121.393 58.7841 H 0 **** 0.053
14648 H 42.4681 122.022 57.2684 H 0 **** 0.053
14649 H 44.0085 121.115 57.2761 H 0 **** 0.053
14650 H 40.664 122.109 63.1169 H 0 **** 0.053
14651 H 40.1051 122.714 61.5271 H 0 **** 0.053
14652 H 41.6112 121.764 61.6881 H 0 **** 0.053
14653 H 37.1859 121.355 63.7856 H 0 **** 0.053
14654 H 38.6102 122.315 63.4693 H 0 **** 0.053
14655 H 38.6837 121.043 64.7299 H 0 **** 0.053
14656 H 36.3467 118.598 65.1571 H 0 **** 0.41
14657 H 30.8819 119.502 64.4118 H 0 **** 0.053
14658 H 32.3518 120.091 65.213 H 0 **** 0.053
14659 H 31.6755 118.507 65.6735 H 0 **** 0.053
14660 H 30.2219 116.172 62.8509 H 0 **** 0.053
14661 H 30.0936 117.946 62.8556 H 0 **** 0.053
14662 H 30.295 117.05 64.3969 H 0 **** 0.053
14663 H 33.1466 112.382 63.5175 H 0 **** 0.41
14664 H 37.9488 113.596 59.8641 H 0 **** 0.41
14665 H 28.9477 104.362 62.8749 H 0 **** 0.053
14666 H 28.7068 104.234 64.6147 H 0 **** 0.053
14667 H 29.9959 103.286 63.8481 H 0 **** 0.053
14668 H 28.4622 105.95 66.0545 H 0 **** 0.053
14669 H 29.6796 106.484 67.2219 H 0 **** 0.053
14670 H 29.6435 104.789 66.7164 H 0 **** 0.053
14671 C 38.2868 101.54 38.8272 C.2 0 **** 0
14672 C 37.5276 101.129 39.9118 C.2 0 **** 0
14673 C 36.3706 100.394 39.7085 C.2 0 **** 0
14674 C 35.9988 100.069 38.4275 C.2 0 **** 0
14675 C 36.7846 100.43 37.3396 C.2 0 **** 0
14676 C 37.9375 101.159 37.5439 C.2 0 **** 0
14677 C 34.7268 99.2856 38.1719 C.3 0 **** -0.106
14678 C 33.7882 99.014 39.3398 C.2 0 **** 0
14679 C 34.1507 99.3354 40.6183 C.2 0 **** 0
14680 C 35.5188 99.9543 40.8966 C.3 0 **** -0.106
14681 C 33.2577 99.0988 41.6684 C.2 0 **** 0
14682 C 31.9862 98.6157 41.4304 C.2 0 **** 0
14683 C 31.6555 98.1949 40.1473 C.2 0 **** 0
14684 C 32.5455 98.4078 39.0875 C.2 0 **** 0
14685 C 32.1934 98.0399 37.7975 C.2 0 **** -0.1268
14686 C 30.9441 97.5832 37.4321 C.2 0 **** 0
14687 C 30.0072 97.518 38.5235 C.2 0 **** 0
14688 C 30.4347 97.5954 39.8516 C.2 0 **** 0.042
14689 C 28.5469 97.1083 38.2486 C.3 0 **** 0
14690 C 28.1527 96.7326 36.8176 C.3 0 **** 0
14691 C 29.279 96.6202 35.7709 C.2 0 **** 0
14692 C 30.6064 97.067 36.0767 C.2 0 **** 0
14693 C 26.6998 97.0905 36.4418 C.3 0 **** -0.106
14694 C 26.3324 98.5113 36.8776 C.3 0 **** -0.053
14695 C 26.4385 98.6906 38.4219 C.3 0 **** -0.053
14696 C 27.3727 97.653 39.0973 C.3 0 **** -0.106
14697 C 31.5776 96.8433 35.0801 C.2 0 **** 0.042
14698 C 31.2393 96.2557 33.8795 C.2 0 **** 0.052
14699 C 29.9489 95.812 33.632 C.2 0 **** 0.052
14700 C 28.9906 95.9381 34.6025 C.2 0 **** 0.042
14701 C 29.5545 95.1556 32.3349 C.2 0 **** 0.367
14702 C 30.6309 95.0066 31.3119 C.2 0 **** 0
14703 C 31.882 95.4183 31.5492 C.2 0 **** 0
14704 C 32.2926 96.0676 32.8175 C.2 0 **** 0.367
14705 C 32.9641 95.274 30.5039 C.3 0 **** -0.106
14706 C 32.3421 95.4873 29.1012 C.3 0 **** -0.106
14707 C 31.1299 94.5782 28.896 C.2 0 **** 0
14708 C 30.2682 94.3487 29.9927 C.2 0 **** 0.2405
14709 N 29.1619 93.5821 29.8858 N.2 0 **** -0.481
14710 C 28.8434 93.11 28.6843 C.2 0 **** 0.2405
14711 C 29.6785 93.2817 27.5555 C.2 0 **** 0
14712 C 30.8333 94.0121 27.6814 C.2 0 **** 0
14713 C 31.7587 94.2471 26.4939 C.3 0 **** -0.106
14714 C 31.4825 93.2926 25.3258 C.3 0 **** -0.106
14715 C 29.9842 93.1999 25.0559 C.3 0 **** -0.106
14716 C 29.278 92.5865 26.2782 C.3 0 **** -0.053
14717 C 27.7351 92.615 26.1207 C.3 0 **** -0.106
14718 C 27.0808 92.0968 27.3744 C.2 0 **** 0
14719 C 27.632 92.3753 28.6264 C.2 0 **** 0
14720 C 26.9749 91.9231 29.7848 C.2 0 **** -0.1268
14721 C 25.7835 91.2332 29.6703 C.2 0 **** -0.1268
14722 C 25.2093 90.9894 28.4351 C.2 0 **** 0
14723 C 25.8564 91.4419 27.2853 C.2 0 **** 0
14724 C 38.8278 101.514 36.3807 C.3 0 **** -0.106
14725 C 38.3414 102.801 35.6808 C.3 0 **** -0.159
14726 C 39.4994 102.403 39.0602 C.3 0 **** -0.159
14727 C 36.317 100.019 35.9623 C.3 0 **** -0.159
14728 C 37.9518 101.486 41.3154 C.3 0 **** -0.159
14729 C 33.7234 99.4436 43.0836 C.3 0 **** -0.159
14730 C 31.0307 98.5896 42.6001 C.3 0 **** -0.159
14731 O 29.6018 97.1545 40.8412 O.3 0 **** -0.452
14732 C 25.1004 98.5653 39.1541 C.3 0 **** -0.159
14733 C 24.9429 98.8217 36.3172 C.3 0 **** -0.159
14734 O 27.7292 95.4224 34.4728 O.3 0 **** -0.452
14735 O 32.871 97.1917 35.2948 O.3 0 **** -0.452
14736 O 33.4141 96.4202 32.9919 O.2 0 **** -0.419
14737 O 28.4237 94.8169 32.1359 O.2 0 **** -0.419
14738 C 25.2081 91.2183 25.9293 C.3 0 **** -0.159
14739 C 23.883 90.2564 28.3908 C.3 0 **** -0.159
14740 H 34.1455 99.8464 37.4037 H 0 **** 0.053
14741 H 35.0046 98.3072 37.7088 H 0 **** 0.053
14742 H 36.117 99.2272 41.4971 H 0 **** 0.053
14743 H 35.3609 100.843 41.5465 H 0 **** 0.053
14744 H 32.9607 98.182 37.0702 H 0 **** 0.1268
14745 H 26.5308 97.0021 35.367 H 0 **** 0.053
14746 H 26.0652 96.3602 36.949 H 0 **** 0.053
14747 H 27.0463 99.2069 36.4023 H 0 **** 0.053
14748 H 26.8445 99.6938 38.6069 H 0 **** 0.053
14749 H 26.7941 96.7571 39.34 H 0 **** 0.053
14750 H 27.7285 98.0805 40.0426 H 0 **** 0.053
14751 H 33.7927 95.9917 30.6453 H 0 **** 0.053
14752 H 33.4015 94.2638 30.5861 H 0 **** 0.053
14753 H 33.1429 95.3251 28.3594 H 0 **** 0.053
14754 H 32.0496 96.5543 29.0003 H 0 **** 0.053
14755 H 31.6404 95.2887 26.1383 H 0 **** 0.053
14756 H 32.8199 94.13 26.7786 H 0 **** 0.053
14757 H 31.8677 92.2838 25.5685 H 0 **** 0.053
14758 H 32.0242 93.6227 24.4198 H 0 **** 0.053
14759 H 29.7762 92.5865 24.1583 H 0 **** 0.053
14760 H 29.5763 94.2071 24.8579 H 0 **** 0.053
14761 H 29.5977 91.5201 26.3311 H 0 **** 0.053
14762 H 27.4118 93.6627 25.9262 H 0 **** 0.053
14763 H 27.4659 92.0301 25.2145 H 0 **** 0.053
14764 H 27.3985 92.1133 30.7782 H 0 **** 0.1268
14765 H 25.273 90.8837 30.5814 H 0 **** 0.1268
14766 H 38.8888 100.697 35.636 H 0 **** 0.053
14767 H 39.8796 101.654 36.6876 H 0 **** 0.053
14768 H 38.3195 103.651 36.3833 H 0 **** 0.053
14769 H 37.3266 102.676 35.2688 H 0 **** 0.053
14770 H 39.0055 103.085 34.8401 H 0 **** 0.053
14771 H 39.4027 103.05 39.9539 H 0 **** 0.053
14772 H 39.6886 103.111 38.2306 H 0 **** 0.053
14773 H 40.4237 101.798 39.192 H 0 **** 0.053
14774 H 35.3296 100.469 35.7146 H 0 **** 0.053
14775 H 36.2017 98.9167 35.8761 H 0 **** 0.053
14776 H 36.982 100.314 35.1373 H 0 **** 0.053
14777 H 37.5737 100.785 42.0841 H 0 **** 0.053
14778 H 37.5977 102.5 41.6049 H 0 **** 0.053
14779 H 39.0514 101.472 41.4405 H 0 **** 0.053
14780 H 33.2871 98.7767 43.848 H 0 **** 0.053
14781 H 33.4653 100.491 43.3615 H 0 **** 0.053
14782 H 34.8229 99.3356 43.2247 H 0 **** 0.053
14783 H 30.0113 98.9313 42.3139 H 0 **** 0.053
14784 H 31.2969 99.2855 43.4418 H 0 **** 0.053
14785 H 30.923 97.5734 43.0611 H 0 **** 0.053
14786 H 28.9548 96.5499 40.4681 H 0 **** 0.41
14787 H 24.3989 99.3568 38.8585 H 0 **** 0.053
14788 H 25.2489 98.6494 40.2475 H 0 **** 0.053
14789 H 24.6262 97.5827 38.962 H 0 **** 0.053
14790 H 24.9421 98.7544 35.2132 H 0 **** 0.053
14791 H 24.6246 99.8396 36.5864 H 0 **** 0.053
14792 H 24.1868 98.0997 36.6858 H 0 **** 0.053
14793 H 27.6251 95.1038 33.5635 H 0 **** 0.41
14794 H 33.3986 97.0164 34.5009 H 0 **** 0.41
14795 H 25.1677 92.1538 25.3405 H 0 **** 0.053
14796 H 24.1619 90.8626 25.9909 H 0 **** 0.053
14797 H 25.7601 90.465 25.33 H 0 **** 0.053
14798 H 23.079 90.8856 27.967 H 0 **** 0.053
14799 H 23.543 89.9512 29.396 H 0 **** 0.053
14800 H 23.9431 89.3348 27.7859 H 0 **** 0.053
14801 C 22.5151 164.871 50.4793 C.2 0 **** 0
14802 C 22.3971 166.183 50.9113 C.2 0 **** 0
14803 C 23.0025 167.205 50.197 C.2 0 **** 0
14804 C 23.7024 166.901 49.0557 C.2 0 **** 0
14805 C 23.7782 165.595 48.5866 C.2 0 **** 0
14806 C 23.1728 164.58 49.2976 C.2 0 **** 0
14807 C 24.3942 167.992 48.2652 C.3 0 **** -0.106
14808 C 24.4404 169.399 48.847 C.2 0 **** 0
14809 C 23.7474 169.708 49.9844 C.2 0 **** 0
14810 C 22.8935 168.649 50.6772 C.3 0 **** -0.106
14811 C 23.8308 171.002 50.5107 C.2 0 **** 0
14812 C 24.6604 171.952 49.9478 C.2 0 **** 0
14813 C 25.2873 171.662 48.7413 C.2 0 **** 0
14814 C 25.1942 170.383 48.1857 C.2 0 **** 0
14815 C 25.8635 170.082 47.0083 C.2 0 **** -0.1268
14816 C 26.7469 170.934 46.377 C.2 0 **** 0
14817 C 26.9326 172.187 47.0549 C.2 0 **** 0
14818 C 26.0629 172.594 48.0643 C.2 0 **** 0.042
14819 C 27.9512 173.209 46.5128 C.3 0 **** 0
14820 C 28.7105 172.866 45.2285 C.3 0 **** 0
14821 C 28.2824 171.598 44.462 C.2 0 **** 0
14822 C 27.3632 170.666 45.0484 C.2 0 **** 0
14823 C 30.1444 173.435 45.1641 C.3 0 **** -0.106
14824 C 30.913 173.205 46.4693 C.3 0 **** -0.053
14825 C 30.2186 173.901 47.6785 C.3 0 **** -0.053
14826 C 28.7126 174.184 47.4443 C.3 0 **** -0.106
14827 C 26.9762 169.584 44.2316 C.2 0 **** 0.042
14828 C 27.4884 169.437 42.9603 C.2 0 **** 0.052
14829 C 28.3545 170.375 42.4193 C.2 0 **** 0.052
14830 C 28.6966 171.484 43.1475 C.2 0 **** 0.042
14831 C 28.9194 170.245 41.03 C.2 0 **** 0.367
14832 C 28.5007 169.042 40.2533 C.2 0 **** 0
14833 C 27.6532 168.14 40.7632 C.2 0 **** 0
14834 C 27.0861 168.246 42.1285 C.2 0 **** 0.367
14835 C 27.244 166.917 39.9743 C.3 0 **** -0.106
14836 C 28.4493 166.441 39.1253 C.3 0 **** -0.106
14837 C 29.0136 167.585 38.2825 C.2 0 **** 0
14838 C 29.0517 168.88 38.8481 C.2 0 **** 0.2405
14839 N 29.558 169.938 38.1794 N.2 0 **** -0.481
14840 C 30.1144 169.718 36.9925 C.2 0 **** 0.2405
14841 C 30.0804 168.453 36.3606 C.2 0 **** 0
14842 C 29.5138 167.392 37.019 C.2 0 **** 0
14843 C 29.4735 166.005 36.3951 C.3 0 **** -0.106
14844 C 29.7372 166.017 34.8859 C.3 0 **** -0.106
14845 C 30.9347 166.905 34.567 C.3 0 **** -0.106
14846 C 30.6151 168.362 34.9529 C.3 0 **** -0.053
14847 C 31.8624 169.272 34.8042 C.3 0 **** -0.106
14848 C 31.5387 170.663 35.2824 C.2 0 **** 0
14849 C 30.693 170.856 36.3763 C.2 0 **** 0
14850 C 30.443 172.162 36.8336 C.2 0 **** -0.1268
14851 C 31.0588 173.232 36.2137 C.2 0 **** -0.1268
14852 C 31.9313 173.046 35.1559 C.2 0 **** 0
14853 C 32.1832 171.751 34.7033 C.2 0 **** 0
14854 C 23.2009 163.166 48.7762 C.3 0 **** -0.106
14855 C 24.5028 162.447 49.1888 C.3 0 **** -0.159
14856 C 21.9165 163.765 51.3086 C.3 0 **** -0.159
14857 C 24.5526 165.345 47.3129 C.3 0 **** -0.159
14858 C 21.6175 166.504 52.1629 C.3 0 **** -0.159
14859 C 23.0093 171.309 51.7639 C.3 0 **** -0.159
14860 C 24.8354 173.247 50.7062 C.3 0 **** -0.159
14861 O 26.0643 173.905 48.4256 O.3 0 **** -0.452
14862 C 30.8296 175.254 48.0475 C.3 0 **** -0.159
14863 C 32.3614 173.655 46.2451 C.3 0 **** -0.159
14864 O 29.4525 172.505 42.6382 O.3 0 **** -0.452
14865 O 26.0769 168.675 44.6839 O.3 0 **** -0.452
14866 O 26.3357 167.426 42.548 O.2 0 **** -0.419
14867 O 29.6957 171.051 40.6033 O.2 0 **** -0.419
14868 C 33.1736 171.537 33.5712 C.3 0 **** -0.159
14869 C 32.5925 174.266 34.5471 C.3 0 **** -0.159
14870 H 25.4484 167.666 48.1074 H 0 **** 0.053
14871 H 23.9228 168.046 47.2534 H 0 **** 0.053
14872 H 21.823 168.957 50.5998 H 0 **** 0.053
14873 H 23.1476 168.667 51.7599 H 0 **** 0.053
14874 H 25.6829 169.098 46.6337 H 0 **** 0.1268
14875 H 30.7127 172.993 44.3442 H 0 **** 0.053
14876 H 30.0378 174.505 44.9695 H 0 **** 0.053
14877 H 30.9263 172.118 46.6646 H 0 **** 0.053
14878 H 30.3132 173.229 48.5416 H 0 **** 0.053
14879 H 28.6026 175.153 46.95 H 0 **** 0.053
14880 H 28.231 174.261 48.4256 H 0 **** 0.053
14881 H 26.9046 166.087 40.6199 H 0 **** 0.053
14882 H 26.391 167.184 39.3266 H 0 **** 0.053
14883 H 28.1085 165.581 38.5249 H 0 **** 0.053
14884 H 29.2279 166.039 39.8078 H 0 **** 0.053
14885 H 30.2216 165.356 36.8864 H 0 **** 0.053
14886 H 28.4934 165.533 36.5565 H 0 **** 0.053
14887 H 28.8491 166.404 34.3512 H 0 **** 0.053
14888 H 29.8999 164.988 34.5125 H 0 **** 0.053
14889 H 31.2031 166.85 33.4944 H 0 **** 0.053
14890 H 31.8169 166.557 35.1347 H 0 **** 0.053
14891 H 29.8327 168.731 34.2455 H 0 **** 0.053
14892 H 32.6966 168.845 35.4059 H 0 **** 0.053
14893 H 32.1932 169.24 33.7435 H 0 **** 0.053
14894 H 29.7702 172.342 37.6814 H 0 **** 0.1268
14895 H 30.862 174.252 36.5796 H 0 **** 0.1268
14896 H 23.0972 163.125 47.6744 H 0 **** 0.053
14897 H 22.34 162.573 49.1323 H 0 **** 0.053
14898 H 24.6123 162.423 50.2856 H 0 **** 0.053
14899 H 25.3901 162.951 48.7711 H 0 **** 0.053
14900 H 24.5213 161.398 48.8323 H 0 **** 0.053
14901 H 21.898 163.999 52.3909 H 0 **** 0.053
14902 H 22.4905 162.821 51.2435 H 0 **** 0.053
14903 H 20.8715 163.535 51.005 H 0 **** 0.053
14904 H 25.623 165.631 47.4225 H 0 **** 0.053
14905 H 24.1463 165.931 46.4599 H 0 **** 0.053
14906 H 24.5686 164.299 46.9751 H 0 **** 0.053
14907 H 21.2163 167.536 52.182 H 0 **** 0.053
14908 H 22.242 166.387 53.0762 H 0 **** 0.053
14909 H 20.7286 165.856 52.2846 H 0 **** 0.053
14910 H 22.6699 172.359 51.8025 H 0 **** 0.053
14911 H 23.5826 171.105 52.6974 H 0 **** 0.053
14912 H 22.0675 170.717 51.83 H 0 **** 0.053
14913 H 25.8938 173.589 50.7151 H 0 **** 0.053
14914 H 24.5891 173.19 51.8014 H 0 **** 0.053
14915 H 24.2173 174.087 50.2956 H 0 **** 0.053
14916 H 26.3722 174.442 47.6907 H 0 **** 0.41
14917 H 31.8712 175.152 48.3799 H 0 **** 0.053
14918 H 30.2641 175.721 48.8765 H 0 **** 0.053
14919 H 30.7978 175.957 47.1917 H 0 **** 0.053
14920 H 32.8275 173.076 45.4261 H 0 **** 0.053
14921 H 32.9726 173.503 47.1472 H 0 **** 0.053
14922 H 32.4156 174.724 45.957 H 0 **** 0.053
14923 H 29.7869 172.228 41.7715 H 0 **** 0.41
14924 H 25.9534 167.974 44.0269 H 0 **** 0.41
14925 H 33.9214 170.763 33.8276 H 0 **** 0.053
14926 H 33.7594 172.441 33.3172 H 0 **** 0.053
14927 H 32.6667 171.22 32.636 H 0 **** 0.053
14928 H 33.691 174.243 34.6687 H 0 **** 0.053
14929 H 32.2467 175.204 35.0157 H 0 **** 0.053
14930 H 32.3763 174.356 33.468 H 0 **** 0.053
14931 C 48.4553 193.85 46.8609 C.2 0 **** 0
14932 C 48.8136 192.557 46.5121 C.2 0 **** 0
14933 C 47.8508 191.562 46.46 C.2 0 **** 0
14934 C 46.5448 191.877 46.7427 C.2 0 **** 0
14935 C 46.1702 193.182 47.0389 C.2 0 **** 0
14936 C 47.1292 194.172 47.0876 C.2 0 **** 0
14937 C 45.4735 190.805 46.7177 C.3 0 **** -0.106
14938 C 45.8954 189.353 46.5399 C.2 0 **** 0
14939 C 47.194 189.031 46.2593 C.2 0 **** 0
14940 C 48.2406 190.132 46.0967 C.3 0 **** -0.106
14941 C 47.5584 187.688 46.1284 C.2 0 **** 0
14942 C 46.6469 186.674 46.3505 C.2 0 **** 0
14943 C 45.3085 187.002 46.5346 C.2 0 **** 0
14944 C 44.924 188.343 46.6505 C.2 0 **** 0
14945 C 43.5979 188.669 46.8918 C.2 0 **** -0.1268
14946 C 42.6079 187.748 47.1661 C.2 0 **** 0
14947 C 43.0708 186.385 47.1853 C.2 0 **** 0
14948 C 44.3149 186.035 46.6545 C.2 0 **** 0.042
14949 C 42.093 185.254 47.5634 C.3 0 **** 0
14950 C 40.6372 185.621 47.862 C.3 0 **** 0
14951 C 40.1951 187.074 47.5943 C.2 0 **** 0
14952 C 41.1638 188.088 47.2956 C.2 0 **** 0
14953 C 39.9554 184.722 48.9151 C.3 0 **** -0.106
14954 C 40.844 184.504 50.1439 C.3 0 **** -0.053
14955 C 42.1851 183.803 49.7695 C.3 0 **** -0.053
14956 C 42.5706 183.966 48.2757 C.3 0 **** -0.106
14957 C 40.6481 189.363 46.9887 C.2 0 **** 0.042
14958 C 39.2905 189.603 47.0099 C.2 0 **** 0.052
14959 C 38.3832 188.588 47.2766 C.2 0 **** 0.052
14960 C 38.8361 187.315 47.5044 C.2 0 **** 0.042
14961 C 36.8949 188.819 47.2949 C.2 0 **** 0.367
14962 C 36.4351 190.211 47.0128 C.2 0 **** 0
14963 C 37.3038 191.192 46.7394 C.2 0 **** 0
14964 C 38.7722 190.988 46.7174 C.2 0 **** 0.367
14965 C 36.8307 192.601 46.4662 C.3 0 **** -0.106
14966 C 35.5946 192.899 47.3514 C.3 0 **** -0.106
14967 C 34.5244 191.821 47.1776 C.2 0 **** 0
14968 C 34.9409 190.479 47.0229 C.2 0 **** 0.2405
14969 N 34.0579 189.466 46.8922 N.2 0 **** -0.481
14970 C 32.7636 189.748 47.0043 C.2 0 **** 0.2405
14971 C 32.2834 191.073 47.1293 C.2 0 **** 0
14972 C 33.1823 192.107 47.2029 C.2 0 **** 0
14973 C 32.722 193.551 47.3616 C.3 0 **** -0.106
14974 C 31.2357 193.741 47.0353 C.3 0 **** -0.106
14975 C 30.4009 192.646 47.6917 C.3 0 **** -0.106
14976 C 30.7889 191.276 47.1039 C.3 0 **** -0.053
14977 C 30.0853 190.117 47.8588 C.3 0 **** -0.106
14978 C 30.5642 188.794 47.3226 C.2 0 **** 0
14979 C 31.8938 188.631 46.9295 C.2 0 **** 0
14980 C 32.3289 187.373 46.4762 C.2 0 **** -0.1268
14981 C 31.4449 186.311 46.4533 C.2 0 **** -0.1268
14982 C 30.1369 186.455 46.8814 C.2 0 **** 0
14983 C 29.7043 187.701 47.3347 C.2 0 **** 0
14984 C 46.7331 195.601 47.3577 C.3 0 **** -0.106
14985 C 46.6223 195.872 48.8733 C.3 0 **** -0.159
14986 C 49.5254 194.903 46.9888 C.3 0 **** -0.159
14987 C 44.7104 193.451 47.3221 C.3 0 **** -0.159
14988 C 50.2518 192.225 46.1967 C.3 0 **** -0.159
14989 C 49.0154 187.382 45.7804 C.3 0 **** -0.159
14990 C 47.1829 185.263 46.3868 C.3 0 **** -0.159
14991 O 44.5556 184.726 46.3435 O.3 0 **** -0.452
14992 C 42.184 182.294 50.0227 C.3 0 **** -0.159
14993 C 40.0187 183.744 51.1888 C.3 0 **** -0.159
14994 O 37.9976 186.245 47.6635 O.3 0 **** -0.452
14995 O 41.4846 190.376 46.6523 O.3 0 **** -0.452
14996 O 39.5131 191.884 46.4721 O.2 0 **** -0.419
14997 O 36.1383 187.932 47.5673 O.2 0 **** -0.419
14998 C 28.2821 187.854 47.8475 C.3 0 **** -0.159
14999 C 29.2348 185.237 46.8563 C.3 0 **** -0.159
15000 H 44.9201 190.872 47.6831 H 0 **** 0.053
15001 H 44.7418 191.06 45.9124 H 0 **** 0.053
15002 H 48.5889 190.13 45.0357 H 0 **** 0.053
15003 H 49.1215 189.853 46.7165 H 0 **** 0.053
15004 H 43.3927 189.716 46.8995 H 0 **** 0.1268
15005 H 39.0044 185.144 49.245 H 0 **** 0.053
15006 H 39.7533 183.771 48.4177 H 0 **** 0.053
15007 H 41.0848 185.497 50.5648 H 0 **** 0.053
15008 H 42.9743 184.259 50.3817 H 0 **** 0.053
15009 H 42.1027 183.165 47.6969 H 0 **** 0.053
15010 H 43.6568 183.842 48.1896 H 0 **** 0.053
15011 H 37.6101 193.359 46.6661 H 0 **** 0.053
15012 H 36.5726 192.685 45.3962 H 0 **** 0.053
15013 H 35.2427 193.912 47.0922 H 0 **** 0.053
15014 H 35.9215 192.955 48.4116 H 0 **** 0.053
15015 H 32.9032 193.88 48.403 H 0 **** 0.053
15016 H 33.2977 194.233 46.7107 H 0 **** 0.053
15017 H 31.0851 193.699 45.9397 H 0 **** 0.053
15018 H 30.8936 194.742 47.3582 H 0 **** 0.053
15019 H 29.3185 192.824 47.545 H 0 **** 0.053
15020 H 30.5787 192.645 48.7825 H 0 **** 0.053
15021 H 30.4409 191.257 46.0421 H 0 **** 0.053
15022 H 30.3188 190.197 48.9449 H 0 **** 0.053
15023 H 28.9862 190.255 47.7644 H 0 **** 0.053
15024 H 33.3642 187.221 46.1461 H 0 **** 0.1268
15025 H 31.7934 185.327 46.1004 H 0 **** 0.1268
15026 H 45.7753 195.869 46.8703 H 0 **** 0.053
15027 H 47.4469 196.322 46.9205 H 0 **** 0.053
15028 H 47.5776 195.666 49.3838 H 0 **** 0.053
15029 H 45.8475 195.241 49.3392 H 0 **** 0.053
15030 H 46.3572 196.928 49.0813 H 0 **** 0.053
15031 H 50.5033 194.488 47.3024 H 0 **** 0.053
15032 H 49.2915 195.662 47.7596 H 0 **** 0.053
15033 H 49.6915 195.446 46.0328 H 0 **** 0.053
15034 H 44.3552 192.883 48.2115 H 0 **** 0.053
15035 H 44.0627 193.156 46.4686 H 0 **** 0.053
15036 H 44.4634 194.501 47.5352 H 0 **** 0.053
15037 H 50.368 191.347 45.5332 H 0 **** 0.053
15038 H 50.8349 192.009 47.1193 H 0 **** 0.053
15039 H 50.7673 193.048 45.6648 H 0 **** 0.053
15040 H 49.1227 186.466 45.1724 H 0 **** 0.053
15041 H 49.6436 187.257 46.6921 H 0 **** 0.053
15042 H 49.4977 188.174 45.1638 H 0 **** 0.053
15043 H 46.7318 184.665 47.2096 H 0 **** 0.053
15044 H 48.284 185.182 46.598 H 0 **** 0.053
15045 H 47.0091 184.699 45.4334 H 0 **** 0.053
15046 H 43.7198 184.267 46.2243 H 0 **** 0.41
15047 H 42.0668 182.061 51.0893 H 0 **** 0.053
15048 H 43.1398 181.846 49.691 H 0 **** 0.053
15049 H 41.373 181.792 49.4591 H 0 **** 0.053
15050 H 39.1193 184.322 51.4716 H 0 **** 0.053
15051 H 40.5994 183.566 52.1063 H 0 **** 0.053
15052 H 39.6659 182.769 50.7979 H 0 **** 0.053
15053 H 37.0887 186.578 47.7129 H 0 **** 0.41
15054 H 40.9796 191.192 46.5136 H 0 **** 0.41
15055 H 28.259 188.348 48.8368 H 0 **** 0.053
15056 H 27.7542 186.891 47.9859 H 0 **** 0.053
15057 H 27.6581 188.456 47.1546 H 0 **** 0.053
15058 H 28.8979 184.953 47.8701 H 0 **** 0.053
15059 H 29.7434 184.351 46.4371 H 0 **** 0.053
15060 H 28.3352 185.404 46.2384 H 0 **** 0.053
15061 C 20.6437 194.499 35.5238 C.2 0 **** 0
15062 C 19.6109 194.236 36.4098 C.2 0 **** 0
15063 C 18.7396 193.187 36.1661 C.2 0 **** 0
15064 C 18.9242 192.407 35.0512 C.2 0 **** 0
15065 C 19.993 192.628 34.1908 C.2 0 **** 0
15066 C 20.8609 193.672 34.4364 C.2 0 **** 0
15067 C 17.9734 191.268 34.7445 C.3 0 **** -0.106
15068 C 16.7217 191.111 35.5968 C.2 0 **** 0
15069 C 16.5303 191.885 36.7077 C.2 0 **** 0
15070 C 17.5856 192.906 37.1246 C.3 0 **** -0.106
15071 C 15.3583 191.738 37.4563 C.2 0 **** 0
15072 C 14.3555 190.878 37.0535 C.2 0 **** 0
15073 C 14.593 190.021 35.9854 C.2 0 **** 0
15074 C 15.7692 190.143 35.2358 C.2 0 **** 0
15075 C 15.9815 189.326 34.1353 C.2 0 **** -0.1268
15076 C 15.0421 188.459 33.617 C.2 0 **** 0
15077 C 13.7886 188.469 34.3255 C.2 0 **** 0
15078 C 13.6758 189.052 35.5904 C.2 0 **** 0.042
15079 C 12.6152 187.614 33.8073 C.3 0 **** 0
15080 C 12.8422 186.739 32.5716 C.3 0 **** 0
15081 C 14.2799 186.63 32.0255 C.2 0 **** 0
15082 C 15.3144 187.492 32.5185 C.2 0 **** 0
15083 C 11.5952 186.557 31.6805 C.3 0 **** -0.106
15084 C 10.8763 187.885 31.423 C.3 0 **** -0.053
15085 C 10.378 188.539 32.748 C.3 0 **** -0.053
15086 C 11.1419 188.045 34.0047 C.3 0 **** -0.106
15087 C 16.6081 187.255 32.0114 C.2 0 **** 0.042
15088 C 16.8335 186.268 31.0754 C.2 0 **** 0.052
15089 C 15.8108 185.437 30.6437 C.2 0 **** 0.052
15090 C 14.5534 185.58 31.1681 C.2 0 **** 0.042
15091 C 16.0309 184.343 29.6317 C.2 0 **** 0.367
15092 C 17.4197 184.197 29.1041 C.2 0 **** 0
15093 C 18.415 184.985 29.5272 C.2 0 **** 0
15094 C 18.2212 186.068 30.5213 C.2 0 **** 0.367
15095 C 19.8163 184.837 28.9797 C.3 0 **** -0.106
15096 C 19.7343 184.446 27.4829 C.3 0 **** -0.106
15097 C 18.8382 183.223 27.2851 C.2 0 **** 0
15098 C 17.6772 183.104 28.0825 C.2 0 **** 0.2405
15099 N 16.8216 182.068 27.9509 N.2 0 **** -0.481
15100 C 17.0458 181.193 26.9756 C.2 0 **** 0.2405
15101 C 18.2041 181.24 26.1653 C.2 0 **** 0
15102 C 19.1035 182.262 26.3415 C.2 0 **** 0
15103 C 20.3562 182.375 25.4819 C.3 0 **** -0.106
15104 C 20.6823 181.079 24.7311 C.3 0 **** -0.106
15105 C 19.4241 180.501 24.0915 C.3 0 **** -0.106
15106 C 18.4175 180.109 25.1899 C.3 0 **** -0.053
15107 C 17.0584 179.673 24.5818 C.3 0 **** -0.106
15108 C 16.0723 179.394 25.6847 C.2 0 **** 0
15109 C 16.0713 180.171 26.8447 C.2 0 **** 0
15110 C 15.1099 179.921 27.8404 C.2 0 **** -0.1268
15111 C 14.1645 178.933 27.6453 C.2 0 **** -0.1268
15112 C 14.1328 178.187 26.48 C.2 0 **** 0
15113 C 15.083 178.436 25.4899 C.2 0 **** 0
15114 C 22.0542 193.893 33.5428 C.3 0 **** -0.106
15115 C 21.6733 194.729 32.3032 C.3 0 **** -0.159
15116 C 21.5289 195.692 35.7627 C.3 0 **** -0.159
15117 C 20.1387 191.715 32.9952 C.3 0 **** -0.159
15118 C 19.4256 195.096 37.6364 C.3 0 **** -0.159
15119 C 15.2075 192.602 38.7087 C.3 0 **** -0.159
15120 C 13.0502 190.942 37.8107 C.3 0 **** -0.159
15121 O 12.6126 188.716 36.3805 O.3 0 **** -0.452
15122 C 8.90027 188.277 33.0467 C.3 0 **** -0.159
15123 C 9.76061 187.623 30.4044 C.3 0 **** -0.159
15124 O 13.5244 184.726 30.875 O.3 0 **** -0.452
15125 O 17.6602 187.991 32.4504 O.3 0 **** -0.452
15126 O 19.1306 186.747 30.873 O.2 0 **** -0.419
15127 O 15.1212 183.666 29.2495 O.2 0 **** -0.419
15128 C 15.0263 177.65 24.1901 C.3 0 **** -0.159
15129 C 13.0462 177.142 26.3251 C.3 0 **** -0.159
15130 H 17.6407 191.394 33.6882 H 0 **** 0.053
15131 H 18.5488 190.311 34.7849 H 0 **** 0.053
15132 H 18.0212 192.583 38.1006 H 0 **** 0.053
15133 H 17.0647 193.87 37.3177 H 0 **** 0.053
15134 H 16.9327 189.449 33.6685 H 0 **** 0.1268
15135 H 11.8534 186.11 30.7188 H 0 **** 0.053
15136 H 10.9385 185.866 32.2138 H 0 **** 0.053
15137 H 11.6015 188.575 30.9552 H 0 **** 0.053
15138 H 10.529 189.622 32.6551 H 0 **** 0.053
15139 H 10.6584 187.14 34.3831 H 0 **** 0.053
15140 H 11.052 188.814 34.781 H 0 **** 0.053
15141 H 20.4136 185.762 29.08 H 0 **** 0.053
15142 H 20.3402 184.056 29.5581 H 0 **** 0.053
15143 H 20.7681 184.295 27.127 H 0 **** 0.053
15144 H 19.3418 185.313 26.9094 H 0 **** 0.053
15145 H 20.2215 183.19 24.7446 H 0 **** 0.053
15146 H 21.2405 182.643 26.0883 H 0 **** 0.053
15147 H 21.1011 180.334 25.4349 H 0 **** 0.053
15148 H 21.4629 181.259 23.9686 H 0 **** 0.053
15149 H 19.6603 179.618 23.467 H 0 **** 0.053
15150 H 18.968 181.252 23.4217 H 0 **** 0.053
15151 H 18.8446 179.235 25.7397 H 0 **** 0.053
15152 H 16.6771 180.487 23.9242 H 0 **** 0.053
15153 H 17.2363 178.796 23.9223 H 0 **** 0.053
15154 H 15.0962 180.507 28.7683 H 0 **** 0.1268
15155 H 13.4116 178.746 28.4278 H 0 **** 0.1268
15156 H 22.5122 192.94 33.2121 H 0 **** 0.053
15157 H 22.8809 194.4 34.0699 H 0 **** 0.053
15158 H 21.2632 195.709 32.5975 H 0 **** 0.053
15159 H 20.9156 194.216 31.6887 H 0 **** 0.053
15160 H 22.5506 194.92 31.6531 H 0 **** 0.053
15161 H 21.0078 196.524 36.2733 H 0 **** 0.053
15162 H 21.9145 196.139 34.8277 H 0 **** 0.053
15163 H 22.4042 195.431 36.3911 H 0 **** 0.053
15164 H 19.2574 191.785 32.3185 H 0 **** 0.053
15165 H 20.2328 190.65 33.2973 H 0 **** 0.053
15166 H 21.009 191.921 32.3548 H 0 **** 0.053
15167 H 18.9009 194.58 38.4637 H 0 **** 0.053
15168 H 18.8394 196.014 37.4084 H 0 **** 0.053
15169 H 20.3888 195.42 38.0752 H 0 **** 0.053
15170 H 14.626 192.1 39.5022 H 0 **** 0.053
15171 H 14.7082 193.573 38.4866 H 0 **** 0.053
15172 H 16.1785 192.844 39.1975 H 0 **** 0.053
15173 H 12.1702 190.891 37.1317 H 0 **** 0.053
15174 H 12.8759 191.901 38.3697 H 0 **** 0.053
15175 H 12.9354 190.12 38.5644 H 0 **** 0.053
15176 H 12.2508 187.875 36.0888 H 0 **** 0.41
15177 H 8.24675 188.723 32.2848 H 0 **** 0.053
15178 H 8.61864 188.72 34.0209 H 0 **** 0.053
15179 H 8.68704 187.192 33.1056 H 0 **** 0.053
15180 H 10.1799 187.232 29.4584 H 0 **** 0.053
15181 H 9.21095 188.546 30.1655 H 0 **** 0.053
15182 H 9.03979 186.868 30.7755 H 0 **** 0.053
15183 H 13.8156 184.133 30.1662 H 0 **** 0.41
15184 H 18.4647 187.738 31.9728 H 0 **** 0.41
15185 H 15.0651 178.32 23.3104 H 0 **** 0.053
15186 H 14.0993 177.058 24.0696 H 0 **** 0.053
15187 H 15.8688 176.933 24.1064 H 0 **** 0.053
15188 H 12.371 177.372 25.4807 H 0 **** 0.053
15189 H 12.4083 177.069 27.2234 H 0 **** 0.053
15190 H 13.4655 176.135 26.1548 H 0 **** 0.053
15191 C 36.4978 171.851 39.9924 C.2 0 **** 0
15192 C 37.2297 170.691 39.7904 C.2 0 **** 0
15193 C 38.2093 170.323 40.6989 C.2 0 **** 0
15194 C 38.4319 171.111 41.8013 C.2 0 **** 0
15195 C 37.6642 172.245 42.0388 C.2 0 **** 0
15196 C 36.6877 172.608 41.1346 C.2 0 **** 0
15197 C 39.5115 170.747 42.8008 C.3 0 **** -0.106
15198 C 40.4511 169.594 42.4749 C.2 0 **** 0
15199 C 40.2369 168.806 41.3786 C.2 0 **** 0
15200 C 39.0329 169.058 40.4734 C.3 0 **** -0.106
15201 C 41.1313 167.77 41.0886 C.2 0 **** 0
15202 C 42.269 167.575 41.8464 C.2 0 **** 0
15203 C 42.4325 168.308 43.0161 C.2 0 **** 0
15204 C 41.5362 169.337 43.3306 C.2 0 **** 0
15205 C 41.7306 170.106 44.4676 C.2 0 **** -0.1268
15206 C 42.844 170.029 45.2784 C.2 0 **** 0
15207 C 43.8167 169.062 44.84 C.2 0 **** 0
15208 C 43.4946 168.091 43.8889 C.2 0 **** 0.042
15209 C 45.1514 168.927 45.5997 C.3 0 **** 0
15210 C 45.3775 169.803 46.8348 C.3 0 **** 0
15211 C 44.1874 170.638 47.3482 C.2 0 **** 0
15212 C 42.9919 170.761 46.5668 C.2 0 **** 0
15213 C 46.8469 170.215 47.0653 C.3 0 **** -0.106
15214 C 47.5113 170.711 45.7774 C.3 0 **** -0.053
15215 C 47.5317 169.608 44.6763 C.3 0 **** -0.053
15216 C 46.4583 168.508 44.8851 C.3 0 **** -0.106
15217 C 41.9361 171.48 47.163 C.2 0 **** 0.042
15218 C 42.0801 172.046 48.4119 C.2 0 **** 0.052
15219 C 43.2436 171.881 49.1485 C.2 0 **** 0.052
15220 C 44.2665 171.125 48.6406 C.2 0 **** 0.042
15221 C 43.4236 172.478 50.519 C.2 0 **** 0.367
15222 C 42.2782 173.271 51.0544 C.2 0 **** 0
15223 C 41.146 173.421 50.3562 C.2 0 **** 0
15224 C 40.9466 172.843 49.0049 C.2 0 **** 0.367
15225 C 39.994 174.234 50.9004 C.3 0 **** -0.106
15226 C 40.5579 175.429 51.7096 C.3 0 **** -0.106
15227 C 41.5576 174.954 52.7635 C.2 0 **** 0
15228 C 42.4256 173.888 52.4338 C.2 0 **** 0.2405
15229 N 43.3564 173.429 53.298 N.2 0 **** -0.481
15230 C 43.4968 174.062 54.4586 C.2 0 **** 0.2405
15231 C 42.6334 175.107 54.8628 C.2 0 **** 0
15232 C 41.6604 175.544 53.9986 C.2 0 **** 0
15233 C 40.7277 176.691 54.3672 C.3 0 **** -0.106
15234 C 40.7382 177.013 55.8668 C.3 0 **** -0.106
15235 C 42.1678 177.051 56.393 C.3 0 **** -0.106
15236 C 42.7957 175.647 56.2644 C.3 0 **** -0.053
15237 C 44.2928 175.684 56.6258 C.3 0 **** -0.106
15238 C 44.9407 174.353 56.3745 C.2 0 **** 0
15239 C 44.5378 173.575 55.2891 C.2 0 **** 0
15240 C 45.1708 172.341 55.0501 C.2 0 **** -0.1268
15241 C 46.2 171.931 55.8755 C.2 0 **** -0.1268
15242 C 46.6392 172.72 56.9235 C.2 0 **** 0
15243 C 46.0163 173.947 57.1575 C.2 0 **** 0
15244 C 35.8123 173.805 41.4027 C.3 0 **** -0.106
15245 C 36.493 175.108 40.9324 C.3 0 **** -0.159
15246 C 35.4903 172.278 38.9562 C.3 0 **** -0.159
15247 C 37.9584 173.049 43.2841 C.3 0 **** -0.159
15248 C 36.9697 169.83 38.5786 C.3 0 **** -0.159
15249 C 40.8289 166.896 39.8714 C.3 0 **** -0.159
15250 C 43.2722 166.569 41.3337 C.3 0 **** -0.159
15251 O 44.2869 166.983 43.7815 O.3 0 **** -0.452
15252 C 48.8623 168.859 44.5782 C.3 0 **** -0.159
15253 C 48.901 171.246 46.144 C.3 0 **** -0.159
15254 O 45.3955 170.826 49.3551 O.3 0 **** -0.452
15255 O 40.7499 171.613 46.5187 O.3 0 **** -0.452
15256 O 39.9271 172.999 48.4153 O.2 0 **** -0.419
15257 O 44.4548 172.353 51.1157 O.2 0 **** -0.419
15258 C 46.5272 174.836 58.2803 C.3 0 **** -0.159
15259 C 47.7942 172.215 57.7663 C.3 0 **** -0.159
15260 H 40.1412 171.655 42.9484 H 0 **** 0.053
15261 H 39.0228 170.535 43.7832 H 0 **** 0.053
15262 H 38.3448 168.182 40.5529 H 0 **** 0.053
15263 H 39.3985 169.075 39.4229 H 0 **** 0.053
15264 H 40.9611 170.82 44.6566 H 0 **** 0.1268
15265 H 46.9283 170.998 47.8214 H 0 **** 0.053
15266 H 47.3577 169.325 47.4382 H 0 **** 0.053
15267 H 46.9157 171.56 45.3968 H 0 **** 0.053
15268 H 47.3379 170.102 43.7149 H 0 **** 0.053
15269 H 46.8675 167.729 45.5351 H 0 **** 0.053
15270 H 46.2503 168.047 43.9119 H 0 **** 0.053
15271 H 39.3292 174.617 50.1049 H 0 **** 0.053
15272 H 39.3763 173.584 51.544 H 0 **** 0.053
15273 H 39.6961 175.971 52.1354 H 0 **** 0.053
15274 H 41.0423 176.138 51.0054 H 0 **** 0.053
15275 H 41.0231 177.598 53.8051 H 0 **** 0.053
15276 H 39.6842 176.469 54.0806 H 0 **** 0.053
15277 H 40.1793 176.235 56.4198 H 0 **** 0.053
15278 H 40.2203 177.97 56.0627 H 0 **** 0.053
15279 H 42.202 177.382 57.4483 H 0 **** 0.053
15280 H 42.7581 177.783 55.8122 H 0 **** 0.053
15281 H 42.2739 174.971 56.9807 H 0 **** 0.053
15282 H 44.7233 176.45 55.9556 H 0 **** 0.053
15283 H 44.4166 176.052 57.6642 H 0 **** 0.053
15284 H 44.8556 171.698 54.2172 H 0 **** 0.1268
15285 H 46.6869 170.96 55.6872 H 0 **** 0.1268
15286 H 35.5495 173.899 42.4745 H 0 **** 0.053
15287 H 34.828 173.721 40.9087 H 0 **** 0.053
15288 H 36.7213 175.069 39.8545 H 0 **** 0.053
15289 H 37.4376 175.287 41.4719 H 0 **** 0.053
15290 H 35.8456 175.992 41.1009 H 0 **** 0.053
15291 H 35.7644 171.959 37.9312 H 0 **** 0.053
15292 H 35.3897 173.377 38.8822 H 0 **** 0.053
15293 H 34.4768 171.869 39.1651 H 0 **** 0.053
15294 H 38.9969 173.45 43.2757 H 0 **** 0.053
15295 H 37.8543 172.437 44.206 H 0 **** 0.053
15296 H 37.313 173.927 43.4346 H 0 **** 0.053
15297 H 37.2529 168.769 38.7205 H 0 **** 0.053
15298 H 37.5295 170.195 37.6889 H 0 **** 0.053
15299 H 35.8978 169.799 38.3046 H 0 **** 0.053
15300 H 41.1748 165.855 40.0004 H 0 **** 0.053
15301 H 41.3 167.296 38.9445 H 0 **** 0.053
15302 H 39.7399 166.795 39.6601 H 0 **** 0.053
15303 H 44.3188 166.932 41.4385 H 0 **** 0.053
15304 H 43.1969 166.347 40.2345 H 0 **** 0.053
15305 H 43.2106 165.578 41.8543 H 0 **** 0.053
15306 H 44.7807 166.862 44.5966 H 0 **** 0.41
15307 H 49.6832 169.525 44.2823 H 0 **** 0.053
15308 H 48.7997 168.057 43.8179 H 0 **** 0.053
15309 H 49.1261 168.378 45.541 H 0 **** 0.053
15310 H 48.8208 172.076 46.8705 H 0 **** 0.053
15311 H 49.4286 171.631 45.2587 H 0 **** 0.053
15312 H 49.5272 170.462 46.616 H 0 **** 0.053
15313 H 45.3761 171.338 50.1769 H 0 **** 0.41
15314 H 40.1489 172.169 47.0379 H 0 **** 0.41
15315 H 46.7129 175.868 57.9313 H 0 **** 0.053
15316 H 47.4877 174.496 58.7138 H 0 **** 0.053
15317 H 45.8064 174.887 59.1219 H 0 **** 0.053
15318 H 48.6776 172.875 57.6955 H 0 **** 0.053
15319 H 48.1292 171.21 57.4531 H 0 **** 0.053
15320 H 47.5199 172.134 58.8329 H 0 **** 0.053
15321 C 19.1638 92.9044 23.0519 C.2 0 **** 0
15322 C 19.1237 91.8797 22.1193 C.2 0 **** 0
15323 C 19.7272 92.0449 20.8827 C.2 0 **** 0
15324 C 20.3734 93.2236 20.6036 C.2 0 **** 0
15325 C 20.4653 94.2332 21.5541 C.2 0 **** 0
15326 C 19.8658 94.0664 22.7853 C.2 0 **** 0
15327 C 21.0236 93.4425 19.2521 C.3 0 **** -0.106
15328 C 20.8031 92.4066 18.1583 C.2 0 **** 0
15329 C 20.1595 91.231 18.428 C.2 0 **** 0
15330 C 19.6702 90.929 19.8429 C.3 0 **** -0.106
15331 C 19.9471 90.3096 17.3977 C.2 0 **** 0
15332 C 20.3089 90.5959 16.0962 C.2 0 **** 0
15333 C 21.0523 91.7426 15.8412 C.2 0 **** 0
15334 C 21.2891 92.6674 16.8654 C.2 0 **** 0
15335 C 21.9814 93.839 16.5991 C.2 0 **** -0.1268
15336 C 22.3593 94.2501 15.3377 C.2 0 **** 0
15337 C 21.9676 93.3442 14.2893 C.2 0 **** 0
15338 C 21.5482 92.0426 14.5757 C.2 0 **** 0.042
15339 C 22.2467 93.7155 12.8192 C.3 0 **** 0
15340 C 22.9814 95.026 12.5263 C.3 0 **** 0
15341 C 23.5538 95.8093 13.7247 C.2 0 **** 0
15342 C 23.2131 95.4399 15.0674 C.2 0 **** 0
15343 C 22.5684 95.7081 11.2047 C.3 0 **** -0.106
15344 C 21.0465 95.7548 11.0355 C.3 0 **** -0.053
15345 C 20.4246 94.3256 11.0054 C.3 0 **** -0.053
15346 C 21.3217 93.2484 11.6696 C.3 0 **** -0.106
15347 C 23.8529 96.1695 16.0895 C.2 0 **** 0.042
15348 C 24.7272 97.1925 15.7896 C.2 0 **** 0.052
15349 C 25.0524 97.5018 14.4774 C.2 0 **** 0.052
15350 C 24.5145 96.7671 13.454 C.2 0 **** 0.042
15351 C 26.0134 98.6057 14.1209 C.2 0 **** 0.367
15352 C 26.6045 99.3651 15.2623 C.2 0 **** 0
15353 C 26.3075 99.0623 16.5317 C.2 0 **** 0
15354 C 25.3642 97.9816 16.9048 C.2 0 **** 0.367
15355 C 26.9027 99.8428 17.6809 C.3 0 **** -0.106
15356 C 27.0443 101.328 17.2622 C.3 0 **** -0.106
15357 C 27.8054 101.454 15.9423 C.2 0 **** 0
15358 C 27.5776 100.485 14.9393 C.2 0 **** 0.2405
15359 N 28.192 100.539 13.7386 N.2 0 **** -0.481
15360 C 28.9555 101.595 13.4757 C.2 0 **** 0.2405
15361 C 29.2465 102.582 14.4466 C.2 0 **** 0
15362 C 28.6694 102.49 15.6883 C.2 0 **** 0
15363 C 28.9296 103.536 16.7651 C.3 0 **** -0.106
15364 C 30.1492 104.414 16.4598 C.3 0 **** -0.106
15365 C 30.126 104.873 15.0054 C.3 0 **** -0.106
15366 C 30.2435 103.651 14.0748 C.3 0 **** -0.053
15367 C 30.0564 104.053 12.5879 C.3 0 **** -0.106
15368 C 30.0795 102.822 11.7209 C.2 0 **** 0
15369 C 29.511 101.629 12.1717 C.2 0 **** 0
15370 C 29.5036 100.506 11.3254 C.2 0 **** -0.1268
15371 C 30.0314 100.606 10.0525 C.2 0 **** -0.1268
15372 C 30.5583 101.796 9.58344 C.2 0 **** 0
15373 C 30.5637 102.912 10.4199 C.2 0 **** 0
15374 C 19.9994 95.1296 23.8452 C.3 0 **** -0.106
15375 C 18.9333 96.2311 23.6654 C.3 0 **** -0.159
15376 C 18.4368 92.7391 24.3613 C.3 0 **** -0.159
15377 C 21.2093 95.4937 21.1768 C.3 0 **** -0.159
15378 C 18.4166 90.5858 22.4418 C.3 0 **** -0.159
15379 C 19.2534 88.9955 17.7576 C.3 0 **** -0.159
15380 C 19.854 89.6302 15.0277 C.3 0 **** -0.159
15381 O 21.5555 91.1107 13.5765 O.3 0 **** -0.452
15382 C 20.146 93.8035 9.59419 C.3 0 **** -0.159
15383 C 20.7405 96.5891 9.78599 C.3 0 **** -0.159
15384 O 24.8765 96.9391 12.1453 O.3 0 **** -0.452
15385 O 23.6271 95.8649 17.3923 O.3 0 **** -0.452
15386 O 25.1254 97.7416 18.0449 O.2 0 **** -0.419
15387 O 26.2467 98.8732 12.9785 O.2 0 **** -0.419
15388 C 31.101 104.234 9.89575 C.3 0 **** -0.159
15389 C 31.0903 101.837 8.16478 C.3 0 **** -0.159
15390 H 20.651 94.4183 18.8629 H 0 **** 0.053
15391 H 22.1239 93.5611 19.4074 H 0 **** 0.053
15392 H 20.2528 90.062 20.2376 H 0 **** 0.053
15393 H 18.6136 90.589 19.7687 H 0 **** 0.053
15394 H 22.1685 94.4479 17.4547 H 0 **** 0.1268
15395 H 22.956 96.7266 11.1428 H 0 **** 0.053
15396 H 23.0223 95.12 10.4039 H 0 **** 0.053
15397 H 20.6274 96.2903 11.9064 H 0 **** 0.053
15398 H 19.4749 94.3709 11.5545 H 0 **** 0.053
15399 H 22.0181 92.8552 10.9234 H 0 **** 0.053
15400 H 20.6783 92.4191 11.9874 H 0 **** 0.053
15401 H 26.2911 99.7825 18.5996 H 0 **** 0.053
15402 H 27.8886 99.4117 17.927 H 0 **** 0.053
15403 H 27.5275 101.86 18.0999 H 0 **** 0.053
15404 H 26.0292 101.77 17.1699 H 0 **** 0.053
15405 H 28.0393 104.186 16.8664 H 0 **** 0.053
15406 H 29.0925 103.068 17.7529 H 0 **** 0.053
15407 H 31.0781 103.84 16.64 H 0 **** 0.053
15408 H 30.1822 105.282 17.1442 H 0 **** 0.053
15409 H 30.9473 105.585 14.7959 H 0 **** 0.053
15410 H 29.1809 105.407 14.7973 H 0 **** 0.053
15411 H 31.2752 103.238 14.1925 H 0 **** 0.053
15412 H 29.0833 104.583 12.4748 H 0 **** 0.053
15413 H 30.8463 104.789 12.3232 H 0 **** 0.053
15414 H 29.0764 99.5527 11.6602 H 0 **** 0.1268
15415 H 30.0173 99.7236 9.39261 H 0 **** 0.1268
15416 H 21.0047 95.5944 23.8465 H 0 **** 0.053
15417 H 19.9125 94.7153 24.8652 H 0 **** 0.053
15418 H 17.9156 95.8096 23.712 H 0 **** 0.053
15419 H 19.0432 96.7435 22.6956 H 0 **** 0.053
15420 H 19.0065 97.0043 24.4564 H 0 **** 0.053
15421 H 17.5423 92.0911 24.2782 H 0 **** 0.053
15422 H 18.0449 93.6951 24.7577 H 0 **** 0.053
15423 H 19.0887 92.2999 25.1481 H 0 **** 0.053
15424 H 20.7298 96.0086 20.314 H 0 **** 0.053
15425 H 22.2604 95.2819 20.8847 H 0 **** 0.053
15426 H 21.2677 96.2549 21.9687 H 0 **** 0.053
15427 H 18.7957 89.7191 21.8666 H 0 **** 0.053
15428 H 17.3252 90.6532 22.2361 H 0 **** 0.053
15429 H 18.5355 90.2917 23.5021 H 0 **** 0.053
15430 H 19.5942 88.1512 17.1327 H 0 **** 0.053
15431 H 18.1465 89.0674 17.6534 H 0 **** 0.053
15432 H 19.4568 88.6597 18.8 H 0 **** 0.053
15433 H 19.4849 90.1555 14.119 H 0 **** 0.053
15434 H 18.9772 88.9882 15.315 H 0 **** 0.053
15435 H 20.6594 88.9235 14.6979 H 0 **** 0.053
15436 H 22.1536 91.393 12.8795 H 0 **** 0.41
15437 H 19.3963 94.4155 9.0751 H 0 **** 0.053
15438 H 19.7547 92.7691 9.63475 H 0 **** 0.053
15439 H 21.0697 93.7814 8.98279 H 0 **** 0.053
15440 H 21.1394 97.6153 9.89457 H 0 **** 0.053
15441 H 19.6568 96.6725 9.61505 H 0 **** 0.053
15442 H 21.2094 96.154 8.88087 H 0 **** 0.053
15443 H 25.4364 97.7283 12.0875 H 0 **** 0.41
15444 H 24.1071 96.4822 17.9647 H 0 **** 0.41
15445 H 30.391 105.061 10.0806 H 0 **** 0.053
15446 H 31.2813 104.237 8.80383 H 0 **** 0.053
15447 H 32.0661 104.503 10.3729 H 0 **** 0.053
15448 H 30.5198 102.54 7.53124 H 0 **** 0.053
15449 H 31.0294 100.852 7.6693 H 0 **** 0.053
15450 H 32.1514 102.14 8.13162 H 0 **** 0.053
15451 C 11.1899 166.424 78.1669 C.2 0 **** 0
15452 C 10.8681 165.091 77.9678 C.2 0 **** 0
15453 C 11.5869 164.101 78.6179 C.2 0 **** 0
15454 C 12.6047 164.458 79.4671 C.2 0 **** 0
15455 C 12.8962 165.794 79.7138 C.2 0 **** 0
15456 C 12.1781 166.779 79.0678 C.2 0 **** 0
15457 C 13.4232 163.397 80.1751 C.3 0 **** -0.106
15458 C 13.2092 161.937 79.7996 C.2 0 **** 0
15459 C 12.1988 161.573 78.9537 C.2 0 **** 0
15460 C 11.2512 162.629 78.3887 C.3 0 **** -0.106
15461 C 12.0428 160.228 78.6048 C.2 0 **** 0
15462 C 12.9354 159.268 79.0395 C.2 0 **** 0
15463 C 13.898 159.621 79.9785 C.2 0 **** 0
15464 C 14.0563 160.961 80.3519 C.2 0 **** 0
15465 C 15.0538 161.322 81.245 C.2 0 **** -0.1268
15466 C 16.0241 160.463 81.7169 C.2 0 **** 0
15467 C 15.9192 159.125 81.1949 C.2 0 **** 0
15468 C 14.7606 158.689 80.5471 C.2 0 **** 0.042
15469 C 16.9873 158.077 81.5668 C.3 0 **** 0
15470 C 18.1071 158.489 82.526 C.3 0 **** 0
15471 C 18.0003 159.871 83.2011 C.2 0 **** 0
15472 C 17.0131 160.817 82.7721 C.2 0 **** 0
15473 C 19.4582 157.789 82.2681 C.3 0 **** -0.106
15474 C 19.8308 157.792 80.7822 C.3 0 **** -0.053
15475 C 18.7733 157.038 79.9197 C.3 0 **** -0.053
15476 C 17.3825 156.936 80.5992 C.3 0 **** -0.106
15477 C 16.9478 162.017 83.5083 C.2 0 **** 0.042
15478 C 17.8137 162.255 84.5546 C.2 0 **** 0.052
15479 C 18.7373 161.302 84.9571 C.2 0 **** 0.052
15480 C 18.7826 160.09 84.3206 C.2 0 **** 0.042
15481 C 19.6864 161.53 86.1045 C.2 0 **** 0.367
15482 C 19.5883 162.85 86.7952 C.2 0 **** 0
15483 C 18.6892 163.768 86.4224 C.2 0 **** 0
15484 C 17.7466 163.566 85.2961 C.2 0 **** 0.367
15485 C 18.6037 165.106 87.1202 C.3 0 **** -0.106
15486 C 20.0294 165.554 87.5298 C.3 0 **** -0.106
15487 C 20.7376 164.46 88.33 C.2 0 **** 0
15488 C 20.5298 163.113 87.9568 C.2 0 **** 0.2405
15489 N 21.1381 162.091 88.5967 N.2 0 **** -0.481
15490 C 22.0261 162.386 89.5408 C.2 0 **** 0.2405
15491 C 22.2555 163.711 89.9793 C.2 0 **** 0
15492 C 21.5898 164.744 89.368 C.2 0 **** 0
15493 C 21.8153 166.192 89.784 C.3 0 **** -0.106
15494 C 22.5103 166.319 91.1452 C.3 0 **** -0.106
15495 C 23.6891 165.356 91.2348 C.3 0 **** -0.106
15496 C 23.1791 163.904 91.1562 C.3 0 **** -0.053
15497 C 24.3552 162.896 91.0756 C.3 0 **** -0.106
15498 C 23.8186 161.5 90.9007 C.2 0 **** 0
15499 C 22.6829 161.272 90.1215 C.2 0 **** 0
15500 C 22.2283 159.954 89.9344 C.2 0 **** -0.1268
15501 C 22.9262 158.904 90.4989 C.2 0 **** -0.1268
15502 C 24.0768 159.119 91.2371 C.2 0 **** 0
15503 C 24.5313 160.424 91.4209 C.2 0 **** 0
15504 C 12.4464 168.232 79.3629 C.3 0 **** -0.106
15505 C 13.6177 168.766 78.5108 C.3 0 **** -0.159
15506 C 10.45 167.485 77.3943 C.3 0 **** -0.159
15507 C 14.0191 166.107 80.6758 C.3 0 **** -0.159
15508 C 9.7415 164.712 77.038 C.3 0 **** -0.159
15509 C 10.877 159.868 77.6835 C.3 0 **** -0.159
15510 C 12.8023 157.886 78.4451 C.3 0 **** -0.159
15511 O 14.544 157.346 80.4126 O.3 0 **** -0.452
15512 C 19.1647 155.598 79.5842 C.3 0 **** -0.159
15513 C 21.2504 157.227 80.6546 C.3 0 **** -0.159
15514 O 19.5864 159.063 84.7349 O.3 0 **** -0.452
15515 O 16.0161 162.956 83.2061 O.3 0 **** -0.452
15516 O 16.9604 164.406 84.9954 O.2 0 **** -0.419
15517 O 20.4978 160.704 86.4056 O.2 0 **** -0.419
15518 C 25.818 160.663 92.193 C.3 0 **** -0.159
15519 C 24.8056 157.914 91.7983 C.3 0 **** -0.159
15520 H 14.4968 163.633 79.989 H 0 **** 0.053
15521 H 13.2603 163.505 81.2755 H 0 **** 0.053
15522 H 10.2308 162.442 78.8018 H 0 **** 0.053
15523 H 11.1798 162.465 77.2908 H 0 **** 0.053
15524 H 15.0542 162.354 81.5176 H 0 **** 0.1268
15525 H 20.2664 158.261 82.8298 H 0 **** 0.053
15526 H 19.3438 156.764 82.629 H 0 **** 0.053
15527 H 19.858 158.844 80.4448 H 0 **** 0.053
15528 H 18.6593 157.597 78.981 H 0 **** 0.053
15529 H 17.3598 156.044 81.2317 H 0 **** 0.053
15530 H 16.6296 156.801 79.8134 H 0 **** 0.053
15531 H 18.1468 165.889 86.4874 H 0 **** 0.053
15532 H 17.9584 165 88.0093 H 0 **** 0.053
15533 H 19.9289 166.505 88.0802 H 0 **** 0.053
15534 H 20.6037 165.797 86.6104 H 0 **** 0.053
15535 H 22.4338 166.7 89.0192 H 0 **** 0.053
15536 H 20.8633 166.75 89.8403 H 0 **** 0.053
15537 H 21.7931 166.085 91.9546 H 0 **** 0.053
15538 H 22.8411 167.361 91.3148 H 0 **** 0.053
15539 H 24.258 165.504 92.1725 H 0 **** 0.053
15540 H 24.3909 165.548 90.4028 H 0 **** 0.053
15541 H 22.6124 163.697 92.0967 H 0 **** 0.053
15542 H 25.0066 163.166 90.2136 H 0 **** 0.053
15543 H 24.9795 163.013 91.988 H 0 **** 0.053
15544 H 21.3299 159.748 89.3393 H 0 **** 0.1268
15545 H 22.5672 157.874 90.3445 H 0 **** 0.1268
15546 H 12.6673 168.407 80.4341 H 0 **** 0.053
15547 H 11.5594 168.866 79.1829 H 0 **** 0.053
15548 H 13.4073 168.656 77.4342 H 0 **** 0.053
15549 H 14.5538 168.227 78.7312 H 0 **** 0.053
15550 H 13.805 169.841 78.702 H 0 **** 0.053
15551 H 10.1046 167.134 76.4022 H 0 **** 0.053
15552 H 11.0774 168.368 77.1681 H 0 **** 0.053
15553 H 9.55384 167.852 77.9421 H 0 **** 0.053
15554 H 14.9922 165.704 80.3145 H 0 **** 0.053
15555 H 13.8387 165.665 81.6797 H 0 **** 0.053
15556 H 14.199 167.178 80.8504 H 0 **** 0.053
15557 H 9.28589 163.73 77.2721 H 0 **** 0.053
15558 H 10.0818 164.662 75.9799 H 0 **** 0.053
15559 H 8.89882 165.428 77.0811 H 0 **** 0.053
15560 H 10.4738 158.86 77.8847 H 0 **** 0.053
15561 H 11.1686 159.907 76.6089 H 0 **** 0.053
15562 H 9.99656 160.54 77.8025 H 0 **** 0.053
15563 H 13.791 157.442 78.1941 H 0 **** 0.053
15564 H 12.2568 157.846 77.463 H 0 **** 0.053
15565 H 12.276 157.163 79.1211 H 0 **** 0.053
15566 H 15.0645 156.871 81.066 H 0 **** 0.41
15567 H 20.0708 155.557 78.9652 H 0 **** 0.053
15568 H 18.3559 155.1 79.0167 H 0 **** 0.053
15569 H 19.3361 155.003 80.5028 H 0 **** 0.053
15570 H 21.9693 157.845 81.2251 H 0 **** 0.053
15571 H 21.5844 157.215 79.6063 H 0 **** 0.053
15572 H 21.3166 156.197 81.0594 H 0 **** 0.053
15573 H 20.1741 159.399 85.4283 H 0 **** 0.41
15574 H 16.1373 163.736 83.7685 H 0 **** 0.41
15575 H 26.5083 161.324 91.6358 H 0 **** 0.053
15576 H 26.3925 159.739 92.3947 H 0 **** 0.053
15577 H 25.624 161.132 93.1799 H 0 **** 0.053
15578 H 25.8213 157.813 91.3741 H 0 **** 0.053
15579 H 24.2795 156.969 91.5764 H 0 **** 0.053
15580 H 24.9045 157.968 92.8966 H 0 **** 0.053
15581 C 21.4472 166.406 33.2188 C.2 0 **** 0
15582 C 22.6286 166.123 33.8869 C.2 0 **** 0
15583 C 22.9041 164.825 34.2853 C.2 0 **** 0
15584 C 22.0039 163.828 33.999 C.2 0 **** 0
15585 C 20.845 164.095 33.2802 C.2 0 **** 0
15586 C 20.574 165.387 32.8803 C.2 0 **** 0
15587 C 22.2651 162.404 34.4451 C.3 0 **** -0.106
15588 C 23.4533 162.13 35.356 C.2 0 **** 0
15589 C 24.3529 163.116 35.6463 C.2 0 **** 0
15590 C 24.1931 164.508 35.0397 C.3 0 **** -0.106
15591 C 25.418 162.842 36.5087 C.2 0 **** 0
15592 C 25.5424 161.617 37.1313 C.2 0 **** 0
15593 C 24.6888 160.586 36.7577 C.2 0 **** 0
15594 C 23.6252 160.838 35.8826 C.2 0 **** 0
15595 C 22.7385 159.823 35.5549 C.2 0 **** -0.1268
15596 C 22.7363 158.574 36.1385 C.2 0 **** 0
15597 C 23.7529 158.399 37.1431 C.2 0 **** 0
15598 C 24.8194 159.294 37.2581 C.2 0 **** 0.042
15599 C 23.8153 157.081 37.9413 C.3 0 **** 0
15600 C 22.8127 155.976 37.6005 C.3 0 **** 0
15601 C 21.9173 156.178 36.3617 C.2 0 **** 0
15602 C 21.8701 157.447 35.6952 C.2 0 **** 0
15603 C 22.3897 155.105 38.8023 C.3 0 **** -0.106
15604 C 22.0418 155.953 40.0299 C.3 0 **** -0.053
15605 C 23.2583 156.802 40.509 C.3 0 **** -0.053
15606 C 24.3208 157.036 39.4033 C.3 0 **** -0.106
15607 C 21.0829 157.502 34.5274 C.2 0 **** 0.042
15608 C 20.3857 156.396 34.09 C.2 0 **** 0.052
15609 C 20.479 155.178 34.7473 C.2 0 **** 0.052
15610 C 21.294 155.059 35.8416 C.2 0 **** 0.042
15611 C 19.7381 153.951 34.2848 C.2 0 **** 0.367
15612 C 18.8833 154.109 33.0714 C.2 0 **** 0
15613 C 18.8004 155.277 32.4229 C.2 0 **** 0
15614 C 19.5193 156.498 32.8606 C.2 0 **** 0.367
15615 C 17.9237 155.432 31.2014 C.3 0 **** -0.106
15616 C 16.6529 154.564 31.379 C.3 0 **** -0.106
15617 C 17.0197 153.12 31.7229 C.2 0 **** 0
15618 C 18.1225 152.892 32.5772 C.2 0 **** 0.2405
15619 N 18.4943 151.649 32.9488 N.2 0 **** -0.481
15620 C 17.7337 150.628 32.5648 C.2 0 **** 0.2405
15621 C 16.6367 150.788 31.6865 C.2 0 **** 0
15622 C 16.2971 152.048 31.2615 C.2 0 **** 0
15623 C 15.1113 152.281 30.3338 C.3 0 **** -0.106
15624 C 14.6299 150.997 29.6481 C.3 0 **** -0.106
15625 C 14.5378 149.856 30.656 C.3 0 **** -0.106
15626 C 15.9403 149.538 31.2085 C.3 0 **** -0.053
15627 C 15.8727 148.499 32.3584 C.3 0 **** -0.106
15628 C 17.2465 148.289 32.9373 C.2 0 **** 0
15629 C 18.1371 149.358 33.0492 C.2 0 **** 0
15630 C 19.3975 149.147 33.6365 C.2 0 **** -0.1268
15631 C 19.7252 147.895 34.1194 C.2 0 **** -0.1268
15632 C 18.8317 146.841 34.0505 C.2 0 **** 0
15633 C 17.5801 147.049 33.4716 C.2 0 **** 0
15634 C 19.3479 165.685 32.0552 C.3 0 **** -0.106
15635 C 18.109 165.885 32.9534 C.3 0 **** -0.159
15636 C 21.1161 167.831 32.8629 C.3 0 **** -0.159
15637 C 19.9123 162.942 32.9901 C.3 0 **** -0.159
15638 C 23.6158 167.221 34.1963 C.3 0 **** -0.159
15639 C 26.4137 163.966 36.7732 C.3 0 **** -0.159
15640 C 26.6073 161.49 38.1951 C.3 0 **** -0.159
15641 O 25.9392 158.905 37.9379 O.3 0 **** -0.452
15642 C 24.0242 156.178 41.6773 C.3 0 **** -0.159
15643 C 21.4819 155.013 41.1038 C.3 0 **** -0.159
15644 O 21.523 153.865 36.4712 O.3 0 **** -0.452
15645 O 21.0105 158.647 33.8039 O.3 0 **** -0.452
15646 O 19.4207 157.517 32.2581 O.2 0 **** -0.419
15647 O 19.8079 152.923 34.8944 O.2 0 **** -0.419
15648 C 16.5784 145.907 33.4329 C.3 0 **** -0.159
15649 C 19.251 145.504 34.63 C.3 0 **** -0.159
15650 H 21.3515 162.055 34.9801 H 0 **** 0.053
15651 H 22.3649 161.764 33.5344 H 0 **** 0.053
15652 H 25.0497 164.69 34.3464 H 0 **** 0.053
15653 H 24.2935 165.249 35.8634 H 0 **** 0.053
15654 H 22.002 160.095 34.8327 H 0 **** 0.1268
15655 H 21.5301 154.478 38.5583 H 0 **** 0.053
15656 H 23.2385 154.453 39.0186 H 0 **** 0.053
15657 H 21.234 156.649 39.7401 H 0 **** 0.053
15658 H 22.8701 157.778 40.8281 H 0 **** 0.053
15659 H 25.0271 156.201 39.4048 H 0 **** 0.053
15660 H 24.8831 157.943 39.659 H 0 **** 0.053
15661 H 17.6236 156.481 31.0221 H 0 **** 0.053
15662 H 18.4952 155.109 30.314 H 0 **** 0.053
15663 H 16.0602 154.657 30.4527 H 0 **** 0.053
15664 H 16.0279 155.008 32.1827 H 0 **** 0.053
15665 H 14.2723 152.712 30.9138 H 0 **** 0.053
15666 H 15.3544 153.013 29.5421 H 0 **** 0.053
15667 H 15.3391 150.712 28.8478 H 0 **** 0.053
15668 H 13.6545 151.164 29.1545 H 0 **** 0.053
15669 H 14.101 148.949 30.1966 H 0 **** 0.053
15670 H 13.8693 150.146 31.4869 H 0 **** 0.053
15671 H 16.5352 149.091 30.3752 H 0 **** 0.053
15672 H 15.1789 148.873 33.1453 H 0 **** 0.053
15673 H 15.419 147.566 31.9597 H 0 **** 0.053
15674 H 20.1222 149.966 33.7229 H 0 **** 0.1268
15675 H 20.7128 147.738 34.5822 H 0 **** 0.1268
15676 H 19.1359 164.886 31.3183 H 0 **** 0.053
15677 H 19.4772 166.581 31.4233 H 0 **** 0.053
15678 H 18.2652 166.711 33.6671 H 0 **** 0.053
15679 H 17.8805 164.976 33.5332 H 0 **** 0.053
15680 H 17.2071 166.131 32.3575 H 0 **** 0.053
15681 H 21.5556 168.566 33.5641 H 0 **** 0.053
15682 H 20.031 168.039 32.8901 H 0 **** 0.053
15683 H 21.4536 168.093 31.839 H 0 **** 0.053
15684 H 19.5228 162.485 33.9279 H 0 **** 0.053
15685 H 20.4194 162.132 32.4218 H 0 **** 0.053
15686 H 19.018 163.202 32.4048 H 0 **** 0.053
15687 H 24.6563 166.863 34.3101 H 0 **** 0.053
15688 H 23.3544 167.758 35.1335 H 0 **** 0.053
15689 H 23.6736 167.974 33.3936 H 0 **** 0.053
15690 H 27.435 163.587 36.953 H 0 **** 0.053
15691 H 26.1201 164.585 37.652 H 0 **** 0.053
15692 H 26.5273 164.663 35.9121 H 0 **** 0.053
15693 H 26.2447 160.927 39.0838 H 0 **** 0.053
15694 H 26.9471 162.464 38.642 H 0 **** 0.053
15695 H 27.5355 160.975 37.8333 H 0 **** 0.053
15696 H 25.9739 157.945 37.974 H 0 **** 0.41
15697 H 23.4001 156.101 42.5777 H 0 **** 0.053
15698 H 24.9031 156.797 41.9385 H 0 **** 0.053
15699 H 24.3992 155.168 41.4193 H 0 **** 0.053
15700 H 20.577 154.494 40.7351 H 0 **** 0.053
15701 H 21.1989 155.565 42.0124 H 0 **** 0.053
15702 H 22.2142 154.228 41.38 H 0 **** 0.053
15703 H 20.9229 153.204 36.0946 H 0 **** 0.41
15704 H 20.3968 158.533 33.0625 H 0 **** 0.41
15705 H 15.5919 146.22 33.8232 H 0 **** 0.053
15706 H 16.8756 145.035 34.0464 H 0 **** 0.053
15707 H 16.4287 145.526 32.4012 H 0 **** 0.053
15708 H 18.6082 145.203 35.4772 H 0 **** 0.053
15709 H 20.2856 145.524 35.0154 H 0 **** 0.053
15710 H 19.2123 144.699 33.8762 H 0 **** 0.053
15711 C 22.3158 153.933 67.5902 C.2 0 **** 0
15712 C 21.9348 155.25 67.3851 C.2 0 **** 0
15713 C 22.2863 155.897 66.2118 C.2 0 **** 0
15714 C 22.9942 155.214 65.2542 C.2 0 **** 0
15715 C 23.3325 153.878 65.4304 C.2 0 **** 0
15716 C 22.9821 153.235 66.5993 C.2 0 **** 0
15717 C 23.4115 155.901 63.9692 C.3 0 **** -0.106
15718 C 23.1904 157.4 63.8417 C.2 0 **** 0
15719 C 22.5014 158.087 64.8004 C.2 0 **** 0
15720 C 21.8947 157.353 65.992 C.3 0 **** -0.106
15721 C 22.3691 159.474 64.6904 C.2 0 **** 0
15722 C 22.9396 160.169 63.6399 C.2 0 **** 0
15723 C 23.5368 159.455 62.6056 C.2 0 **** 0
15724 C 23.6928 158.069 62.7118 C.2 0 **** 0
15725 C 24.3582 157.367 61.7186 C.2 0 **** -0.1268
15726 C 25.0157 157.955 60.658 C.2 0 **** 0
15727 C 24.9475 159.392 60.6544 C.2 0 **** 0
15728 C 24.0394 160.075 61.4674 C.2 0 **** 0.042
15729 C 25.7097 160.191 59.5792 C.3 0 **** 0
15730 C 26.4882 159.415 58.5139 C.3 0 **** 0
15731 C 26.3124 157.884 58.4728 C.2 0 **** 0
15732 C 25.632 157.199 59.533 C.2 0 **** 0
15733 C 27.7659 160.122 58.0109 C.3 0 **** -0.106
15734 C 28.6087 160.674 59.1648 C.3 0 **** -0.053
15735 C 27.8211 161.729 60.0003 C.3 0 **** -0.053
15736 C 26.2807 161.603 59.8598 C.3 0 **** -0.106
15737 C 25.4594 155.811 59.3615 C.2 0 **** 0.042
15738 C 25.9489 155.17 58.2439 C.2 0 **** 0.052
15739 C 26.5762 155.872 57.2258 C.2 0 **** 0.052
15740 C 26.699 157.233 57.3154 C.2 0 **** 0.042
15741 C 27.1105 155.198 55.9899 C.2 0 **** 0.367
15742 C 26.9356 153.717 55.9126 C.2 0 **** 0
15743 C 26.3172 153.035 56.8838 C.2 0 **** 0
15744 C 25.784 153.678 58.1084 C.2 0 **** 0.367
15745 C 26.1535 151.535 56.803 C.3 0 **** -0.106
15746 C 27.4027 150.926 56.1178 C.3 0 **** -0.106
15747 C 27.6819 151.611 54.7801 C.2 0 **** 0
15748 C 27.4631 153.004 54.68 C.2 0 **** 0.2405
15749 N 27.71 153.687 53.5418 N.2 0 **** -0.481
15750 C 28.2622 153.03 52.5269 C.2 0 **** 0.2405
15751 C 28.4765 151.632 52.5546 C.2 0 **** 0
15752 C 28.1677 150.93 53.6923 C.2 0 **** 0
15753 C 28.3991 149.426 53.7855 C.3 0 **** -0.106
15754 C 28.6129 148.77 52.4157 C.3 0 **** -0.106
15755 C 29.5831 149.594 51.5751 C.3 0 **** -0.106
15756 C 28.9732 150.979 51.2886 C.3 0 **** -0.053
15757 C 29.9923 151.909 50.5791 C.3 0 **** -0.106
15758 C 29.3954 153.281 50.4053 C.2 0 **** 0
15759 C 28.5643 153.82 51.3891 C.2 0 **** 0
15760 C 28.0569 155.121 51.2258 C.2 0 **** -0.1268
15761 C 28.4098 155.857 50.1111 C.2 0 **** -0.1268
15762 C 29.2667 155.345 49.1525 C.2 0 **** 0
15763 C 29.7738 154.056 49.3143 C.2 0 **** 0
15764 C 23.295 151.772 66.7844 C.3 0 **** -0.106
15765 C 24.7331 151.572 67.3077 C.3 0 **** -0.159
15766 C 21.9954 153.269 68.9039 C.3 0 **** -0.159
15767 C 24.1017 153.192 64.3247 C.3 0 **** -0.159
15768 C 21.1468 155.987 68.4405 C.3 0 **** -0.159
15769 C 21.5068 160.187 65.7362 C.3 0 **** -0.159
15770 C 22.8299 161.675 63.6731 C.3 0 **** -0.159
15771 O 23.7399 161.373 61.1745 O.3 0 **** -0.452
15772 C 28.1433 163.177 59.6262 C.3 0 **** -0.159
15773 C 29.9202 161.206 58.5741 C.3 0 **** -0.159
15774 O 27.2083 158.002 56.3042 O.3 0 **** -0.452
15775 O 24.7938 155.083 60.2932 O.3 0 **** -0.452
15776 O 25.2377 153.038 58.9478 O.2 0 **** -0.419
15777 O 27.6827 155.823 55.1451 O.2 0 **** -0.419
15778 C 30.7497 153.506 48.2878 C.3 0 **** -0.159
15779 C 29.6326 156.224 47.9731 C.3 0 **** -0.159
15780 H 24.5051 155.723 63.8445 H 0 **** 0.053
15781 H 22.9066 155.388 63.1138 H 0 **** 0.053
15782 H 20.7834 157.403 65.914 H 0 **** 0.053
15783 H 22.1676 157.921 66.9091 H 0 **** 0.053
15784 H 24.3799 156.31 61.8598 H 0 **** 0.1268
15785 H 28.3885 159.449 57.4184 H 0 **** 0.053
15786 H 27.4285 160.934 57.3634 H 0 **** 0.053
15787 H 28.8605 159.83 59.832 H 0 **** 0.053
15788 H 28.0865 161.574 61.0546 H 0 **** 0.053
15789 H 25.9535 162.188 58.9953 H 0 **** 0.053
15790 H 25.8224 162.049 60.7501 H 0 **** 0.053
15791 H 26.0208 151.066 57.795 H 0 **** 0.053
15792 H 25.2426 151.311 56.2213 H 0 **** 0.053
15793 H 27.2296 149.84 56.0265 H 0 **** 0.053
15794 H 28.2723 151.036 56.8004 H 0 **** 0.053
15795 H 29.2875 149.231 54.4164 H 0 **** 0.053
15796 H 27.549 148.915 54.2724 H 0 **** 0.053
15797 H 27.6469 148.698 51.8807 H 0 **** 0.053
15798 H 28.98 147.734 52.536 H 0 **** 0.053
15799 H 29.8213 149.084 50.6222 H 0 **** 0.053
15800 H 30.5376 149.714 52.1191 H 0 **** 0.053
15801 H 28.1078 150.827 50.5981 H 0 **** 0.053
15802 H 30.9181 151.97 51.1954 H 0 **** 0.053
15803 H 30.2874 151.436 49.6175 H 0 **** 0.053
15804 H 27.3899 155.563 51.9766 H 0 **** 0.1268
15805 H 28.0123 156.878 49.9915 H 0 **** 0.1268
15806 H 23.1662 151.196 65.8476 H 0 **** 0.053
15807 H 22.5928 151.281 67.4809 H 0 **** 0.053
15808 H 24.8811 152.091 68.2695 H 0 **** 0.053
15809 H 25.4789 151.962 66.5954 H 0 **** 0.053
15810 H 24.9632 150.5 67.4722 H 0 **** 0.053
15811 H 21.9633 153.982 69.751 H 0 **** 0.053
15812 H 22.7552 152.522 69.2044 H 0 **** 0.053
15813 H 21.0138 152.746 68.8783 H 0 **** 0.053
15814 H 25.0897 153.676 64.1529 H 0 **** 0.053
15815 H 23.5531 153.222 63.3587 H 0 **** 0.053
15816 H 24.33 152.131 64.5051 H 0 **** 0.053
15817 H 20.5353 156.817 68.0378 H 0 **** 0.053
15818 H 21.8121 156.426 69.217 H 0 **** 0.053
15819 H 20.421 155.332 68.9596 H 0 **** 0.053
15820 H 20.947 161.045 65.3171 H 0 **** 0.053
15821 H 22.1113 160.563 66.5889 H 0 **** 0.053
15822 H 20.7043 159.54 66.1651 H 0 **** 0.053
15823 H 23.7806 162.169 63.3752 H 0 **** 0.053
15824 H 22.6263 162.109 64.6888 H 0 **** 0.053
15825 H 22.0255 162.077 63.0025 H 0 **** 0.053
15826 H 23.9473 161.544 60.2525 H 0 **** 0.41
15827 H 29.1934 163.426 59.8301 H 0 **** 0.053
15828 H 27.5197 163.877 60.2147 H 0 **** 0.053
15829 H 27.935 163.372 58.5558 H 0 **** 0.053
15830 H 30.4722 160.398 58.0582 H 0 **** 0.053
15831 H 30.5796 161.608 59.3581 H 0 **** 0.053
15832 H 29.7364 162.002 57.8245 H 0 **** 0.053
15833 H 27.5591 157.409 55.6231 H 0 **** 0.41
15834 H 24.8025 154.146 60.0494 H 0 **** 0.41
15835 H 31.6532 153.089 48.7706 H 0 **** 0.053
15836 H 31.1206 154.267 47.5752 H 0 **** 0.053
15837 H 30.2916 152.701 47.6756 H 0 **** 0.053
15838 H 30.7141 156.451 47.9487 H 0 **** 0.053
15839 H 29.1104 157.197 48.0012 H 0 **** 0.053
15840 H 29.367 155.753 47.0107 H 0 **** 0.053
15841 C 26.6385 136.301 93.5232 C.2 0 **** 0
15842 C 27.6579 136.442 94.4519 C.2 0 **** 0
15843 C 28.6591 135.487 94.5311 C.2 0 **** 0
15844 C 28.6343 134.416 93.6725 C.2 0 **** 0
15845 C 27.6463 134.298 92.7023 C.2 0 **** 0
15846 C 26.6516 135.25 92.6232 C.2 0 **** 0
15847 C 29.7025 133.344 93.75 C.3 0 **** -0.106
15848 C 30.7001 133.388 94.8994 C.2 0 **** 0
15849 C 30.7304 134.45 95.7591 C.2 0 **** 0
15850 C 29.7742 135.625 95.5641 C.3 0 **** -0.106
15851 C 31.6394 134.451 96.8219 C.2 0 **** 0
15852 C 32.457 133.365 97.0645 C.2 0 **** 0
15853 C 32.4983 132.333 96.1343 C.2 0 **** 0
15854 C 31.607 132.325 95.0545 C.2 0 **** 0
15855 C 31.6083 131.267 94.1579 C.2 0 **** -0.1268
15856 C 32.3504 130.115 94.3149 C.2 0 **** 0
15857 C 33.1443 130.094 95.5159 C.2 0 **** 0
15858 C 33.3761 131.259 96.2517 C.2 0 **** 0.042
15859 C 33.959 128.833 95.8674 C.3 0 **** 0
15860 C 33.9309 127.653 94.8925 C.3 0 **** 0
15861 C 33.2341 127.864 93.5334 C.2 0 **** 0
15862 C 32.4504 129.039 93.2901 C.2 0 **** 0
15863 C 34.0521 126.268 95.5622 C.3 0 **** -0.106
15864 C 33.1301 126.137 96.7785 C.3 0 **** -0.053
15865 C 33.4728 127.189 97.8765 C.3 0 **** -0.053
15866 C 34.237 128.424 97.3337 C.3 0 **** -0.106
15867 C 31.9239 129.172 91.9896 C.2 0 **** 0.042
15868 C 32.1384 128.2 91.0355 C.2 0 **** 0.052
15869 C 32.9258 127.09 91.3015 C.2 0 **** 0.052
15870 C 33.5224 126.959 92.5275 C.2 0 **** 0.042
15871 C 33.1874 126.02 90.2744 C.2 0 **** 0.367
15872 C 32.5471 126.209 88.9395 C.2 0 **** 0
15873 C 31.7985 127.286 88.6704 C.2 0 **** 0
15874 C 31.527 128.351 89.6657 C.2 0 **** 0.367
15875 C 31.1446 127.465 87.3193 C.3 0 **** -0.106
15876 C 30.7124 126.079 86.7801 C.3 0 **** -0.106
15877 C 31.8829 125.095 86.7974 C.2 0 **** 0
15878 C 32.7905 125.15 87.8796 C.2 0 **** 0.2405
15879 N 33.8353 124.3 87.98 N.2 0 **** -0.481
15880 C 33.9414 123.331 87.0766 C.2 0 **** 0.2405
15881 C 33.0838 123.242 85.9556 C.2 0 **** 0
15882 C 32.0594 124.145 85.8225 C.2 0 **** 0
15883 C 31.0917 124.082 84.6476 C.3 0 **** -0.106
15884 C 31.6091 123.211 83.4964 C.3 0 **** -0.106
15885 C 32.173 121.899 84.0319 C.3 0 **** -0.106
15886 C 33.3954 122.186 84.9241 C.3 0 **** -0.053
15887 C 33.8999 120.897 85.6239 C.3 0 **** -0.106
15888 C 35.0293 121.234 86.5604 C.2 0 **** 0
15889 C 35.0159 122.429 87.2818 C.2 0 **** 0
15890 C 36.0582 122.7 88.1863 C.2 0 **** -0.1268
15891 C 37.0632 121.77 88.3694 C.2 0 **** -0.1268
15892 C 37.0611 120.565 87.6894 C.2 0 **** 0
15893 C 36.0264 120.293 86.7948 C.2 0 **** 0
15894 C 25.6023 135.165 91.5446 C.3 0 **** -0.106
15895 C 24.4439 134.237 91.968 C.3 0 **** -0.159
15896 C 25.5163 137.306 93.5016 C.3 0 **** -0.159
15897 C 27.6982 133.1 91.7828 C.3 0 **** -0.159
15898 C 27.6779 137.628 95.3845 C.3 0 **** -0.159
15899 C 31.6575 135.677 97.7347 C.3 0 **** -0.159
15900 C 33.2517 133.376 98.3489 C.3 0 **** -0.159
15901 O 34.4167 131.286 97.1371 O.3 0 **** -0.452
15902 C 34.3489 126.638 99.001 C.3 0 **** -0.159
15903 C 33.2025 124.686 97.2682 C.3 0 **** -0.159
15904 O 34.4019 125.953 92.8226 O.3 0 **** -0.452
15905 O 31.2064 130.272 91.65 O.3 0 **** -0.452
15906 O 30.8585 129.293 89.3881 O.2 0 **** -0.419
15907 O 33.8413 125.054 90.5431 O.2 0 **** -0.419
15908 C 35.994 118.953 86.0791 C.3 0 **** -0.159
15909 C 38.1801 119.581 87.967 C.3 0 **** -0.159
15910 H 29.1779 132.362 93.8049 H 0 **** 0.053
15911 H 30.2728 133.347 92.789 H 0 **** 0.053
15912 H 30.3767 136.527 95.3006 H 0 **** 0.053
15913 H 29.3002 135.84 96.5471 H 0 **** 0.053
15914 H 30.9399 131.383 93.3347 H 0 **** 0.1268
15915 H 33.819 125.464 94.8619 H 0 **** 0.053
15916 H 35.0968 126.167 95.8645 H 0 **** 0.053
15917 H 32.0954 126.325 96.4389 H 0 **** 0.053
15918 H 32.5236 127.531 98.3098 H 0 **** 0.053
15919 H 35.3097 128.212 97.3416 H 0 **** 0.053
15920 H 34.0628 129.261 98.0213 H 0 **** 0.053
15921 H 30.2621 128.13 87.3576 H 0 **** 0.053
15922 H 31.8701 127.94 86.6364 H 0 **** 0.053
15923 H 30.2863 126.236 85.7743 H 0 **** 0.053
15924 H 29.8759 125.699 87.4052 H 0 **** 0.053
15925 H 30.1219 123.675 84.994 H 0 **** 0.053
15926 H 30.8832 125.087 84.2394 H 0 **** 0.053
15927 H 32.4073 123.748 82.9495 H 0 **** 0.053
15928 H 30.8033 123.021 82.7629 H 0 **** 0.053
15929 H 32.4613 121.22 83.2069 H 0 **** 0.053
15930 H 31.3992 121.374 84.621 H 0 **** 0.053
15931 H 34.2133 122.56 84.261 H 0 **** 0.053
15932 H 33.0573 120.438 86.1898 H 0 **** 0.053
15933 H 34.1862 120.162 84.8398 H 0 **** 0.053
15934 H 36.0787 123.637 88.7563 H 0 **** 0.1268
15935 H 37.8729 121.986 89.0849 H 0 **** 0.1268
15936 H 26.0196 134.809 90.5827 H 0 **** 0.053
15937 H 25.1871 136.156 91.2873 H 0 **** 0.053
15938 H 23.9697 134.594 92.8973 H 0 **** 0.053
15939 H 24.796 133.207 92.1416 H 0 **** 0.053
15940 H 23.6539 134.189 91.192 H 0 **** 0.053
15941 H 25.3106 137.744 94.498 H 0 **** 0.053
15942 H 24.5498 136.864 93.1931 H 0 **** 0.053
15943 H 25.7263 138.151 92.8095 H 0 **** 0.053
15944 H 27.6044 132.146 92.3493 H 0 **** 0.053
15945 H 28.6556 133.05 91.2208 H 0 **** 0.053
15946 H 26.9038 133.061 91.0228 H 0 **** 0.053
15947 H 28.6902 137.886 95.7515 H 0 **** 0.053
15948 H 27.0464 137.453 96.2838 H 0 **** 0.053
15949 H 27.3129 138.553 94.8991 H 0 **** 0.053
15950 H 32.6611 135.885 98.1459 H 0 **** 0.053
15951 H 30.9567 135.567 98.5937 H 0 **** 0.053
15952 H 31.3788 136.621 97.2123 H 0 **** 0.053
15953 H 33.2504 132.382 98.8497 H 0 **** 0.053
15954 H 32.8472 134.055 99.1476 H 0 **** 0.053
15955 H 34.323 133.673 98.2039 H 0 **** 0.053
15956 H 35.0518 130.603 96.9048 H 0 **** 0.41
15957 H 33.8352 125.843 99.5548 H 0 **** 0.053
15958 H 34.5968 127.439 99.7214 H 0 **** 0.053
15959 H 35.3044 126.237 98.6114 H 0 **** 0.053
15960 H 32.877 123.989 96.4728 H 0 **** 0.053
15961 H 32.5489 124.523 98.1386 H 0 **** 0.053
15962 H 34.237 124.4 97.5449 H 0 **** 0.053
15963 H 34.3982 125.322 92.0871 H 0 **** 0.41
15964 H 30.8747 130.186 90.7439 H 0 **** 0.41
15965 H 35.0041 118.468 86.1715 H 0 **** 0.053
15966 H 36.72 118.219 86.4782 H 0 **** 0.053
15967 H 36.2186 119.059 84.9976 H 0 **** 0.053
15968 H 37.8015 118.641 88.4087 H 0 **** 0.053
15969 H 38.9208 119.984 88.6799 H 0 **** 0.053
15970 H 38.7359 119.321 87.0493 H 0 **** 0.053
15971 C 41.3045 186.36 4.75551 C.2 0 **** 0
15972 C 41.057 185.009 4.56381 C.2 0 **** 0
15973 C 42.1131 184.131 4.38184 C.2 0 **** 0
15974 C 43.3985 184.613 4.40907 C.2 0 **** 0
15975 C 43.6557 185.956 4.65603 C.2 0 **** 0
15976 C 42.6034 186.828 4.83949 C.2 0 **** 0
15977 C 44.5732 183.68 4.19118 C.3 0 **** -0.106
15978 C 44.2973 182.242 3.7762 C.2 0 **** 0
15979 C 43.0201 181.755 3.74574 C.2 0 **** 0
15980 C 41.848 182.646 4.15153 C.3 0 **** -0.106
15981 C 42.7942 180.437 3.33533 C.2 0 **** 0
15982 C 43.8292 179.64 2.88881 C.2 0 **** 0
15983 C 45.1353 180.098 3.01638 C.2 0 **** 0
15984 C 45.3799 181.41 3.44199 C.2 0 **** 0
15985 C 46.6798 181.887 3.51497 C.2 0 **** -0.1268
15986 C 47.7875 181.2 3.06334 C.2 0 **** 0
15987 C 47.4812 179.913 2.49403 C.2 0 **** 0
15988 C 46.2364 179.31 2.6933 C.2 0 **** 0.042
15989 C 48.6102 179.07 1.86935 C.3 0 **** 0
15990 C 50.0395 179.616 1.91951 C.3 0 **** 0
15991 C 50.2904 180.891 2.74865 C.2 0 **** 0
15992 C 49.1913 181.657 3.25928 C.2 0 **** 0
15993 C 50.9182 179.218 0.714499 C.3 0 **** -0.106
15994 C 50.1868 179.414 -0.617173 C.3 0 **** -0.053
15995 C 48.8998 178.538 -0.703186 C.3 0 **** -0.053
15996 C 48.3504 178.11 0.683218 C.3 0 **** -0.106
15997 C 49.5305 182.758 4.07064 C.2 0 **** 0.042
15998 C 50.8488 183.076 4.31878 C.2 0 **** 0.052
15999 C 51.884 182.295 3.82898 C.2 0 **** 0.052
16000 C 51.5987 181.17 3.10075 C.2 0 **** 0.042
16001 C 53.3325 182.612 4.09414 C.2 0 **** 0.367
16002 C 53.606 183.827 4.91702 C.2 0 **** 0
16003 C 52.612 184.578 5.4062 C.2 0 **** 0
16004 C 51.18 184.285 5.1568 C.2 0 **** 0.367
16005 C 52.8978 185.813 6.22933 C.3 0 **** -0.106
16006 C 54.1765 186.498 5.68472 C.3 0 **** -0.106
16007 C 55.3356 185.504 5.60003 C.2 0 **** 0
16008 C 55.0553 184.177 5.20419 C.2 0 **** 0.2405
16009 N 56.0266 183.247 5.07996 N.2 0 **** -0.481
16010 C 57.2868 183.634 5.2498 C.2 0 **** 0.2405
16011 C 57.629 184.939 5.67522 C.2 0 **** 0
16012 C 56.6341 185.866 5.85916 C.2 0 **** 0
16013 C 56.947 187.292 6.29404 C.3 0 **** -0.106
16014 C 58.3631 187.444 6.86283 C.3 0 **** -0.106
16015 C 59.3747 186.728 5.97465 C.3 0 **** -0.106
16016 C 59.0819 185.215 5.97212 C.3 0 **** -0.053
16017 C 59.9808 184.467 4.95231 C.3 0 **** -0.106
16018 C 59.5983 183.012 4.9072 C.2 0 **** 0
16019 C 58.2619 182.628 5.03351 C.2 0 **** 0
16020 C 57.9241 181.266 4.94101 C.2 0 **** -0.1268
16021 C 58.9125 180.332 4.69845 C.2 0 **** -0.1268
16022 C 60.2333 180.709 4.52976 C.2 0 **** 0
16023 C 60.5699 182.059 4.61763 C.2 0 **** 0
16024 C 42.8655 188.278 5.15958 C.3 0 **** -0.106
16025 C 43.0979 189.097 3.87269 C.3 0 **** -0.159
16026 C 40.1437 187.313 4.87539 C.3 0 **** -0.159
16027 C 45.0985 186.405 4.68877 C.3 0 **** -0.159
16028 C 39.6395 184.492 4.54499 C.3 0 **** -0.159
16029 C 41.352 179.93 3.352 C.3 0 **** -0.159
16030 C 43.458 178.31 2.27607 C.3 0 **** -0.159
16031 O 46.1108 177.966 2.48277 O.3 0 **** -0.452
16032 C 49.092 177.234 -1.4804 C.3 0 **** -0.159
16033 C 51.1914 179.151 -1.74545 C.3 0 **** -0.159
16034 O 52.5612 180.291 2.6828 O.3 0 **** -0.452
16035 O 48.5584 183.518 4.63466 O.3 0 **** -0.452
16036 O 50.3249 184.976 5.60846 O.2 0 **** -0.419
16037 O 54.2055 181.941 3.62596 O.2 0 **** -0.419
16038 C 62.0109 182.484 4.38948 C.3 0 **** -0.159
16039 C 61.2562 179.63 4.23509 C.3 0 **** -0.159
16040 H 45.2109 184.136 3.39901 H 0 **** 0.053
16041 H 45.187 183.665 5.125 H 0 **** 0.053
16042 H 41.3976 182.229 5.08462 H 0 **** 0.053
16043 H 41.0696 182.56 3.36153 H 0 **** 0.053
16044 H 46.7687 182.873 3.91202 H 0 **** 0.1268
16045 H 51.8455 179.793 0.689183 H 0 **** 0.053
16046 H 51.1725 178.165 0.857599 H 0 **** 0.053
16047 H 49.8821 180.474 -0.680978 H 0 **** 0.053
16048 H 48.131 179.136 -1.21031 H 0 **** 0.053
16049 H 48.8429 177.183 0.990627 H 0 **** 0.053
16050 H 47.2811 177.893 0.572936 H 0 **** 0.053
16051 H 52.064 186.538 6.21334 H 0 **** 0.053
16052 H 53.0359 185.511 7.282 H 0 **** 0.053
16053 H 54.3871 187.364 6.33576 H 0 **** 0.053
16054 H 53.9534 186.922 4.68239 H 0 **** 0.053
16055 H 56.8363 187.972 5.4268 H 0 **** 0.053
16056 H 56.237 187.646 7.06338 H 0 **** 0.053
16057 H 58.4065 187.009 7.87931 H 0 **** 0.053
16058 H 58.624 188.514 6.97042 H 0 **** 0.053
16059 H 60.4108 186.909 6.31888 H 0 **** 0.053
16060 H 59.3086 187.119 4.94325 H 0 **** 0.053
16061 H 59.3216 184.826 6.99175 H 0 **** 0.053
16062 H 59.8502 184.928 3.94689 H 0 **** 0.053
16063 H 61.043 184.631 5.23608 H 0 **** 0.053
16064 H 56.8838 180.936 5.05204 H 0 **** 0.1268
16065 H 58.6404 179.267 4.62292 H 0 **** 0.1268
16066 H 43.7345 188.406 5.83404 H 0 **** 0.053
16067 H 42.0365 188.736 5.72745 H 0 **** 0.053
16068 H 42.2271 189.034 3.1994 H 0 **** 0.053
16069 H 43.9801 188.736 3.3194 H 0 **** 0.053
16070 H 43.2653 190.17 4.09564 H 0 **** 0.053
16071 H 39.2536 186.981 4.30601 H 0 **** 0.053
16072 H 40.3691 188.317 4.46883 H 0 **** 0.053
16073 H 39.8245 187.451 5.93196 H 0 **** 0.053
16074 H 45.6022 186.232 3.71121 H 0 **** 0.053
16075 H 45.685 185.857 5.45769 H 0 **** 0.053
16076 H 45.2491 187.473 4.90402 H 0 **** 0.053
16077 H 39.5548 183.424 4.82635 H 0 **** 0.053
16078 H 39.1789 184.595 3.53751 H 0 **** 0.053
16079 H 38.9866 185.023 5.26376 H 0 **** 0.053
16080 H 41.2852 178.85 3.56976 H 0 **** 0.053
16081 H 40.8361 180.113 2.38152 H 0 **** 0.053
16082 H 40.7267 180.404 4.14241 H 0 **** 0.053
16083 H 44.0528 178.091 1.36159 H 0 **** 0.053
16084 H 42.3995 178.242 1.90418 H 0 **** 0.053
16085 H 43.5961 177.445 2.97652 H 0 **** 0.053
16086 H 46.978 177.554 2.51978 H 0 **** 0.41
16087 H 49.3407 177.422 -2.53355 H 0 **** 0.053
16088 H 48.1627 176.634 -1.46404 H 0 **** 0.053
16089 H 49.8926 176.613 -1.03283 H 0 **** 0.053
16090 H 52.0459 179.85 -1.6783 H 0 **** 0.053
16091 H 50.7289 179.288 -2.73432 H 0 **** 0.053
16092 H 51.6078 178.125 -1.68897 H 0 **** 0.053
16093 H 53.4287 180.679 2.87282 H 0 **** 0.41
16094 H 48.954 184.256 5.12268 H 0 **** 0.41
16095 H 62.079 183.31 3.65683 H 0 **** 0.053
16096 H 62.6524 181.677 3.98556 H 0 **** 0.053
16097 H 62.4925 182.825 5.3293 H 0 **** 0.053
16098 H 61.7223 179.765 3.24184 H 0 **** 0.053
16099 H 60.8083 178.621 4.23493 H 0 **** 0.053
16100 H 62.0655 179.614 4.98603 H 0 **** 0.053
16101 C 9.05184 141.054 59.2675 C.2 0 **** 0
16102 C 8.49992 141.266 58.0138 C.2 0 **** 0
16103 C 7.92495 142.49 57.7084 C.2 0 **** 0
16104 C 7.92384 143.485 58.6539 C.2 0 **** 0
16105 C 8.52465 143.298 59.8929 C.2 0 **** 0
16106 C 9.09874 142.08 60.1945 C.2 0 **** 0
16107 C 7.28249 144.826 58.3575 C.3 0 **** -0.106
16108 C 6.49644 144.99 57.0638 C.2 0 **** 0
16109 C 6.49168 144.003 56.1179 C.2 0 **** 0
16110 C 7.29765 142.725 56.3369 C.3 0 **** -0.106
16111 C 5.73884 144.17 54.9512 C.2 0 **** 0
16112 C 4.93964 145.282 54.7684 C.2 0 **** 0
16113 C 5.02422 146.328 55.6799 C.2 0 **** 0
16114 C 5.78746 146.184 56.8449 C.2 0 **** 0
16115 C 5.82653 147.205 57.7825 C.2 0 **** -0.1268
16116 C 5.04693 148.342 57.7278 C.2 0 **** 0
16117 C 4.16393 148.387 56.5914 C.2 0 **** 0
16118 C 4.33569 147.525 55.5056 C.2 0 **** 0.042
16119 C 3.17116 149.557 56.4455 C.3 0 **** 0
16120 C 3.19288 150.666 57.501 C.3 0 **** 0
16121 C 4.32478 150.636 58.5476 C.2 0 **** 0
16122 C 5.18249 149.493 58.662 C.2 0 **** 0
16123 C 1.81865 151.312 57.7763 C.3 0 **** -0.106
16124 C 0.715957 150.263 57.9476 C.3 0 **** -0.053
16125 C 0.54315 149.392 56.6658 C.3 0 **** -0.053
16126 C 1.79794 149.381 55.7538 C.3 0 **** -0.106
16127 C 6.23397 149.602 59.5943 C.2 0 **** 0.042
16128 C 6.38876 150.738 60.3597 C.2 0 **** 0.052
16129 C 5.55427 151.834 60.2 C.2 0 **** 0.052
16130 C 4.56725 151.803 59.2508 C.2 0 **** 0.042
16131 C 5.70787 153.092 61.0138 C.2 0 **** 0.367
16132 C 6.81265 153.103 62.0174 C.2 0 **** 0
16133 C 7.63171 152.055 62.1666 C.2 0 **** 0
16134 C 7.49864 150.807 61.3778 C.2 0 **** 0.367
16135 C 8.74111 152.07 63.193 C.3 0 **** -0.106
16136 C 8.26159 152.85 64.4429 C.3 0 **** -0.106
16137 C 7.73031 154.231 64.0564 C.2 0 **** 0
16138 C 6.99624 154.356 62.855 C.2 0 **** 0.2405
16139 N 6.47169 155.535 62.4568 N.2 0 **** -0.481
16140 C 6.58054 156.576 63.2768 C.2 0 **** 0.2405
16141 C 7.32746 156.521 64.4767 C.2 0 **** 0
16142 C 7.9109 155.336 64.8496 C.2 0 **** 0
16143 C 8.70708 155.215 66.1429 C.3 0 **** -0.106
16144 C 9.10189 156.576 66.7296 C.3 0 **** -0.106
16145 C 7.91392 157.532 66.7064 C.3 0 **** -0.106
16146 C 7.49773 157.806 65.2487 C.3 0 **** -0.053
16147 C 6.19102 158.64 65.1811 C.3 0 **** -0.106
16148 C 5.76366 158.803 63.7467 C.2 0 **** 0
16149 C 5.94567 157.763 62.8329 C.2 0 **** 0
16150 C 5.49551 157.921 61.5099 C.2 0 **** -0.1268
16151 C 4.85547 159.089 61.1409 C.2 0 **** -0.1268
16152 C 4.63352 160.107 62.0518 C.2 0 **** 0
16153 C 5.07602 159.95 63.365 C.2 0 **** 0
16154 C 9.79953 141.876 61.5133 C.3 0 **** -0.106
16155 C 8.79799 141.485 62.6205 C.3 0 **** -0.159
16156 C 9.60365 139.695 59.6101 C.3 0 **** -0.159
16157 C 8.49781 144.448 60.8729 C.3 0 **** -0.159
16158 C 8.51501 140.166 56.9807 C.3 0 **** -0.159
16159 C 5.7943 143.053 53.909 C.3 0 **** -0.159
16160 C 4.01154 145.273 53.5766 C.3 0 **** -0.159
16161 O 3.74765 147.838 54.3127 O.3 0 **** -0.452
16162 C -0.606649 149.844 55.7632 C.3 0 **** -0.159
16163 C -0.562057 150.993 58.3766 C.3 0 **** -0.159
16164 O 3.78092 152.885 58.9599 O.3 0 **** -0.452
16165 O 7.12369 148.588 59.7433 O.3 0 **** -0.452
16166 O 8.24584 149.897 61.5383 O.2 0 **** -0.419
16167 O 4.94876 154.008 60.8806 O.2 0 **** -0.419
16168 C 4.79628 161.046 64.3805 C.3 0 **** -0.159
16169 C 3.89652 161.345 61.5807 C.3 0 **** -0.159
16170 H 6.5856 145.049 59.1984 H 0 **** 0.053
16171 H 8.07857 145.61 58.3875 H 0 **** 0.053
16172 H 8.11405 142.69 55.5757 H 0 **** 0.053
16173 H 6.62889 141.863 56.1185 H 0 **** 0.053
16174 H 6.485 147.029 58.6031 H 0 **** 0.1268
16175 H 1.84377 151.938 58.6699 H 0 **** 0.053
16176 H 1.6055 151.951 56.9165 H 0 **** 0.053
16177 H 1.01353 149.594 58.7755 H 0 **** 0.053
16178 H 0.34529 148.363 56.9938 H 0 **** 0.053
16179 H 1.74625 150.23 55.066 H 0 **** 0.053
16180 H 1.77038 148.467 55.1488 H 0 **** 0.053
16181 H 9.05383 151.055 63.4982 H 0 **** 0.053
16182 H 9.6274 152.555 62.7479 H 0 **** 0.053
16183 H 9.10803 152.888 65.1502 H 0 **** 0.053
16184 H 7.47114 152.257 64.9505 H 0 **** 0.053
16185 H 8.10593 154.665 66.8922 H 0 **** 0.053
16186 H 9.63435 154.632 65.9946 H 0 **** 0.053
16187 H 9.92685 157.013 66.136 H 0 **** 0.053
16188 H 9.48934 156.455 67.7586 H 0 **** 0.053
16189 H 8.15622 158.485 67.2137 H 0 **** 0.053
16190 H 7.06558 157.085 67.256 H 0 **** 0.053
16191 H 8.31308 158.405 64.7748 H 0 **** 0.053
16192 H 5.39646 158.116 65.76 H 0 **** 0.053
16193 H 6.36741 159.609 65.6974 H 0 **** 0.053
16194 H 5.63952 157.126 60.7678 H 0 **** 0.1268
16195 H 4.50139 159.204 60.1038 H 0 **** 0.1268
16196 H 10.3598 142.777 61.8321 H 0 **** 0.053
16197 H 10.5832 141.1 61.4539 H 0 **** 0.053
16198 H 8.25844 140.56 62.3587 H 0 **** 0.053
16199 H 8.05002 142.278 62.7848 H 0 **** 0.053
16200 H 9.30735 141.308 63.5888 H 0 **** 0.053
16201 H 9.08441 138.873 59.0796 H 0 **** 0.053
16202 H 9.48976 139.443 60.6816 H 0 **** 0.053
16203 H 10.6856 139.61 59.3665 H 0 **** 0.053
16204 H 7.45539 144.73 61.1434 H 0 **** 0.053
16205 H 8.9825 145.357 60.457 H 0 **** 0.053
16206 H 9.00059 144.255 61.8321 H 0 **** 0.053
16207 H 8.47233 140.538 55.9384 H 0 **** 0.053
16208 H 7.65529 139.472 57.1086 H 0 **** 0.053
16209 H 9.43942 139.559 57.0235 H 0 **** 0.053
16210 H 5.68552 143.43 52.8769 H 0 **** 0.053
16211 H 5.00012 142.29 54.0752 H 0 **** 0.053
16212 H 6.76598 142.509 53.8968 H 0 **** 0.053
16213 H 3.00265 145.668 53.8287 H 0 **** 0.053
16214 H 3.78085 144.252 53.1661 H 0 **** 0.053
16215 H 4.39662 145.874 52.7119 H 0 **** 0.053
16216 H 3.55523 148.779 54.287 H 0 **** 0.41
16217 H -1.57881 149.749 56.265 H 0 **** 0.053
16218 H -0.647204 149.223 54.8481 H 0 **** 0.053
16219 H -0.475628 150.896 55.4404 H 0 **** 0.053
16220 H -0.40256 151.532 59.3297 H 0 **** 0.053
16221 H -1.39386 150.289 58.5296 H 0 **** 0.053
16222 H -0.870528 151.748 57.6264 H 0 **** 0.053
16223 H 3.96354 153.576 59.6142 H 0 **** 0.41
16224 H 7.75176 148.799 60.4507 H 0 **** 0.41
16225 H 4.34216 160.637 65.3025 H 0 **** 0.053
16226 H 4.08816 161.815 64.019 H 0 **** 0.053
16227 H 5.72257 161.584 64.6698 H 0 **** 0.053
16228 H 2.93645 161.479 62.1117 H 0 **** 0.053
16229 H 3.65387 161.3 60.5044 H 0 **** 0.053
16230 H 4.49401 162.261 61.73 H 0 **** 0.053
16231 C 13.3531 157.304 72.5234 C.2 0 **** 0
16232 C 13.5379 155.93 72.543 C.2 0 **** 0
16233 C 14.1212 155.294 71.4586 C.2 0 **** 0
16234 C 14.5238 156.042 70.3794 C.2 0 **** 0
16235 C 14.392 157.425 70.3763 C.2 0 **** 0
16236 C 13.8133 158.057 71.4577 C.2 0 **** 0
16237 C 15.1444 155.372 69.1695 C.3 0 **** -0.106
16238 C 15.1582 153.851 69.1023 C.2 0 **** 0
16239 C 14.7578 153.1 70.1721 C.2 0 **** 0
16240 C 14.3104 153.78 71.4645 C.3 0 **** -0.106
16241 C 14.7553 151.705 70.0727 C.2 0 **** 0
16242 C 15.0786 151.072 68.8889 C.2 0 **** 0
16243 C 15.5821 151.829 67.837 C.2 0 **** 0
16244 C 15.6084 153.226 67.9269 C.2 0 **** 0
16245 C 16.0572 153.984 66.8564 C.2 0 **** -0.1268
16246 C 16.3709 153.469 65.6158 C.2 0 **** 0
16247 C 16.1888 152.044 65.5141 C.2 0 **** 0
16248 C 16.0327 151.251 66.6535 C.2 0 **** 0.042
16249 C 16.4172 151.343 64.1607 C.3 0 **** 0
16250 C 16.8785 152.188 62.9715 C.3 0 **** 0
16251 C 17.2617 153.656 63.2429 C.2 0 **** 0
16252 C 16.9764 154.261 64.5111 C.2 0 **** 0
16253 C 16.3641 151.699 61.6012 C.3 0 **** -0.106
16254 C 14.8675 151.373 61.6343 C.3 0 **** -0.053
16255 C 14.5455 150.24 62.6554 C.3 0 **** -0.053
16256 C 15.6273 150.075 63.7551 C.3 0 **** -0.106
16257 C 17.4386 155.581 64.6829 C.2 0 **** 0.042
16258 C 18.0958 156.239 63.665 C.2 0 **** 0.052
16259 C 18.3815 155.608 62.4628 C.2 0 **** 0.052
16260 C 18.0167 154.301 62.2803 C.2 0 **** 0.042
16261 C 19.1073 156.298 61.3371 C.2 0 **** 0.367
16262 C 19.4949 157.72 61.574 C.2 0 **** 0
16263 C 19.2215 158.33 62.7314 C.2 0 **** 0
16264 C 18.5267 157.67 63.8565 C.2 0 **** 0.367
16265 C 19.573 159.774 62.9426 C.3 0 **** -0.106
16266 C 19.4645 160.561 61.6294 C.3 0 **** -0.106
16267 C 20.2372 159.86 60.5065 C.2 0 **** 0
16268 C 20.2379 158.447 60.467 C.2 0 **** 0.2405
16269 N 20.8584 157.759 59.4836 N.2 0 **** -0.481
16270 C 21.4062 158.449 58.4888 C.2 0 **** 0.2405
16271 C 21.4718 159.862 58.4901 C.2 0 **** 0
16272 C 20.8925 160.558 59.5211 C.2 0 **** 0
16273 C 20.9164 162.081 59.5634 C.3 0 **** -0.106
16274 C 21.9373 162.692 58.5952 C.3 0 **** -0.106
16275 C 21.8561 162.011 57.2346 C.3 0 **** -0.106
16276 C 22.2388 160.524 57.3733 C.3 0 **** -0.053
16277 C 22.0047 159.757 56.0449 C.3 0 **** -0.106
16278 C 22.2951 158.293 56.2449 C.2 0 **** 0
16279 C 21.9707 157.667 57.4496 C.2 0 **** 0
16280 C 22.204 156.287 57.5941 C.2 0 **** -0.1268
16281 C 22.7245 155.567 56.5361 C.2 0 **** -0.1268
16282 C 23.0124 156.173 55.326 C.2 0 **** 0
16283 C 22.7763 157.54 55.1788 C.2 0 **** 0
16284 C 13.7097 159.56 71.4928 C.3 0 **** -0.106
16285 C 12.4483 160.048 70.7494 C.3 0 **** -0.159
16286 C 12.648 157.97 73.6767 C.3 0 **** -0.159
16287 C 14.876 158.178 69.1586 C.3 0 **** -0.159
16288 C 13.0985 155.122 73.739 C.3 0 **** -0.159
16289 C 14.3321 150.91 71.3079 C.3 0 **** -0.159
16290 C 14.8481 149.581 68.8215 C.3 0 **** -0.159
16291 O 16.2454 149.905 66.5554 O.3 0 **** -0.452
16292 C 14.4054 148.856 62.0175 C.3 0 **** -0.159
16293 C 14.4256 151.058 60.2004 C.3 0 **** -0.159
16294 O 18.3566 153.585 61.165 O.3 0 **** -0.452
16295 O 17.2486 156.226 65.8614 O.3 0 **** -0.452
16296 O 18.3204 158.244 64.8788 O.2 0 **** -0.419
16297 O 19.3076 155.739 60.297 O.2 0 **** -0.419
16298 C 23.044 158.202 53.8371 C.3 0 **** -0.159
16299 C 23.5514 155.313 54.2011 C.3 0 **** -0.159
16300 H 14.592 155.738 68.273 H 0 **** 0.053
16301 H 16.1954 155.738 69.0667 H 0 **** 0.053
16302 H 15.0472 153.529 72.2655 H 0 **** 0.053
16303 H 13.3455 153.319 71.7714 H 0 **** 0.053
16304 H 16.102 155.033 67.0434 H 0 **** 0.1268
16305 H 16.5411 152.44 60.8197 H 0 **** 0.053
16306 H 16.9432 150.804 61.3611 H 0 **** 0.053
16307 H 14.3325 152.284 61.957 H 0 **** 0.053
16308 H 13.5952 150.498 63.1411 H 0 **** 0.053
16309 H 16.4032 149.395 63.3927 H 0 **** 0.053
16310 H 15.1573 149.602 64.626 H 0 **** 0.053
16311 H 19.0031 160.263 63.7436 H 0 **** 0.053
16312 H 20.6165 159.795 63.246 H 0 **** 0.053
16313 H 19.8395 161.581 61.837 H 0 **** 0.053
16314 H 18.3943 160.67 61.3663 H 0 **** 0.053
16315 H 19.9104 162.468 59.3095 H 0 **** 0.053
16316 H 21.1472 162.453 60.5783 H 0 **** 0.053
16317 H 22.9603 162.568 58.9918 H 0 **** 0.053
16318 H 21.7763 163.782 58.5012 H 0 **** 0.053
16319 H 22.5211 162.503 56.4992 H 0 **** 0.053
16320 H 20.8274 162.094 56.8387 H 0 **** 0.053
16321 H 23.3297 160.477 57.6076 H 0 **** 0.053
16322 H 20.9471 159.899 55.7246 H 0 **** 0.053
16323 H 22.6344 160.224 55.2565 H 0 **** 0.053
16324 H 21.9663 155.776 58.5355 H 0 **** 0.1268
16325 H 22.8868 154.484 56.6525 H 0 **** 0.1268
16326 H 14.6015 160.05 71.0558 H 0 **** 0.053
16327 H 13.6876 159.952 72.5251 H 0 **** 0.053
16328 H 11.5354 159.619 71.194 H 0 **** 0.053
16329 H 12.473 159.763 69.685 H 0 **** 0.053
16330 H 12.3495 161.151 70.7926 H 0 **** 0.053
16331 H 11.904 157.312 74.1658 H 0 **** 0.053
16332 H 12.0648 158.859 73.368 H 0 **** 0.053
16333 H 13.3588 158.303 74.4653 H 0 **** 0.053
16334 H 14.3207 157.875 68.2426 H 0 **** 0.053
16335 H 15.954 157.995 68.9601 H 0 **** 0.053
16336 H 14.765 159.271 69.2124 H 0 **** 0.053
16337 H 13.6558 154.173 73.8607 H 0 **** 0.053
16338 H 12.0202 154.854 73.6796 H 0 **** 0.053
16339 H 13.2531 155.661 74.6933 H 0 **** 0.053
16340 H 14.848 149.936 71.3827 H 0 **** 0.053
16341 H 13.2356 150.713 71.3206 H 0 **** 0.053
16342 H 14.5779 151.42 72.2671 H 0 **** 0.053
16343 H 14.3995 149.27 67.8518 H 0 **** 0.053
16344 H 14.1124 149.183 69.5726 H 0 **** 0.053
16345 H 15.7855 148.982 68.9603 H 0 **** 0.053
16346 H 16.7938 149.724 65.7874 H 0 **** 0.41
16347 H 13.559 148.814 61.3192 H 0 **** 0.053
16348 H 14.2291 148.088 62.7944 H 0 **** 0.053
16349 H 15.3271 148.568 61.4744 H 0 **** 0.053
16350 H 14.6087 151.924 59.5363 H 0 **** 0.053
16351 H 13.3509 150.827 60.1535 H 0 **** 0.053
16352 H 14.9905 150.202 59.7791 H 0 **** 0.053
16353 H 18.7594 154.194 60.5276 H 0 **** 0.41
16354 H 17.5826 157.134 65.7987 H 0 **** 0.41
16355 H 22.1781 158.803 53.4999 H 0 **** 0.053
16356 H 23.2408 157.484 53.018 H 0 **** 0.053
16357 H 23.9252 158.876 53.8808 H 0 **** 0.053
16358 H 22.8623 155.288 53.3366 H 0 **** 0.053
16359 H 23.6972 154.263 54.5111 H 0 **** 0.053
16360 H 24.5298 155.673 53.8375 H 0 **** 0.053
16361 C 47.1099 96.2814 40.2913 C.2 0 **** 0
16362 C 47.9398 97.0671 39.5065 C.2 0 **** 0
16363 C 48.0481 98.4255 39.7582 C.2 0 **** 0
16364 C 47.3378 98.9736 40.7976 C.2 0 **** 0
16365 C 46.548 98.1819 41.6232 C.2 0 **** 0
16366 C 46.4433 96.8293 41.3729 C.2 0 **** 0
16367 C 47.4173 100.46 41.0825 C.3 0 **** -0.106
16368 C 48.1613 101.354 40.0998 C.2 0 **** 0
16369 C 48.8703 100.816 39.062 C.2 0 **** 0
16370 C 48.9447 99.3008 38.8862 C.3 0 **** -0.106
16371 C 49.5213 101.663 38.1588 C.2 0 **** 0
16372 C 49.3991 103.035 38.251 C.2 0 **** 0
16373 C 48.7664 103.582 39.3617 C.2 0 **** 0
16374 C 48.1251 102.747 40.2854 C.2 0 **** 0
16375 C 47.4438 103.294 41.3624 C.2 0 **** -0.1268
16376 C 47.2249 104.644 41.5407 C.2 0 **** 0
16377 C 47.7718 105.465 40.4917 C.2 0 **** 0
16378 C 48.7015 104.954 39.582 C.2 0 **** 0.042
16379 C 47.5293 106.987 40.5125 C.3 0 **** 0
16380 C 46.7479 107.584 41.6859 C.3 0 **** 0
16381 C 46.4032 106.652 42.8649 C.2 0 **** 0
16382 C 46.6086 105.237 42.7599 C.2 0 **** 0
16383 C 45.8981 108.821 41.3242 C.3 0 **** -0.106
16384 C 45.0927 108.606 40.0388 C.3 0 **** -0.053
16385 C 46.0198 108.337 38.8147 C.3 0 **** -0.053
16386 C 47.4266 107.816 39.2091 C.3 0 **** -0.106
16387 C 46.3372 104.486 43.9214 C.2 0 **** 0.042
16388 C 45.8739 105.096 45.0678 C.2 0 **** 0.052
16389 C 45.7137 106.472 45.1383 C.2 0 **** 0.052
16390 C 46.0405 107.249 44.0588 C.2 0 **** 0.042
16391 C 45.2206 107.167 46.3808 C.2 0 **** 0.367
16392 C 44.9043 106.292 47.5481 C.2 0 **** 0
16393 C 45.0712 104.965 47.4929 C.2 0 **** 0
16394 C 45.5536 104.261 46.2809 C.2 0 **** 0.367
16395 C 44.738 104.085 48.6761 C.3 0 **** -0.106
16396 C 43.5055 104.672 49.4088 C.3 0 **** -0.106
16397 C 43.7209 106.147 49.7496 C.2 0 **** 0
16398 C 44.4058 106.959 48.8174 C.2 0 **** 0.2405
16399 N 44.6156 108.275 49.0333 N.2 0 **** -0.481
16400 C 44.0713 108.825 50.1139 C.2 0 **** 0.2405
16401 C 43.4017 108.062 51.0982 C.2 0 **** 0
16402 C 43.244 106.712 50.9061 C.2 0 **** 0
16403 C 42.5115 105.845 51.9223 C.3 0 **** -0.106
16404 C 42.3462 106.532 53.2832 C.3 0 **** -0.106
16405 C 41.8785 107.972 53.1001 C.3 0 **** -0.106
16406 C 42.9577 108.776 52.3503 C.3 0 **** -0.053
16407 C 42.4564 110.201 51.9951 C.3 0 **** -0.106
16408 C 43.4982 110.919 51.1795 C.2 0 **** 0
16409 C 44.2659 110.224 50.2435 C.2 0 **** 0
16410 C 45.201 110.925 49.4615 C.2 0 **** -0.1268
16411 C 45.3259 112.293 49.6087 C.2 0 **** -0.1268
16412 C 44.5384 112.996 50.5037 C.2 0 **** 0
16413 C 43.6084 112.303 51.2783 C.2 0 **** 0
16414 C 45.6316 95.9481 42.2882 C.3 0 **** -0.106
16415 C 44.1392 95.9629 41.8943 C.3 0 **** -0.159
16416 C 46.9432 94.822 39.956 C.3 0 **** -0.159
16417 C 45.8115 98.8569 42.7576 C.3 0 **** -0.159
16418 C 48.7213 96.4509 38.3716 C.3 0 **** -0.159
16419 C 50.3283 101.011 37.0352 C.3 0 **** -0.159
16420 C 49.9637 103.854 37.115 C.3 0 **** -0.159
16421 O 49.47 105.826 38.8635 O.3 0 **** -0.452
16422 C 46.2761 109.573 37.9507 C.3 0 **** -0.159
16423 C 44.1671 109.816 39.8598 C.3 0 **** -0.159
16424 O 46.0181 108.617 44.0937 O.3 0 **** -0.452
16425 O 46.5427 103.145 43.9335 O.3 0 **** -0.452
16426 O 45.6897 103.079 46.2711 O.2 0 **** -0.419
16427 O 45.0568 108.351 46.4002 O.2 0 **** -0.419
16428 C 42.711 113.074 52.2316 C.3 0 **** -0.159
16429 C 44.7112 114.499 50.5865 C.3 0 **** -0.159
16430 H 46.3707 100.838 41.1467 H 0 **** 0.053
16431 H 47.8686 100.599 42.0953 H 0 **** 0.053
16432 H 50.0018 98.9803 39.0501 H 0 **** 0.053
16433 H 48.7094 99.0732 37.823 H 0 **** 0.053
16434 H 47.0437 102.578 42.0444 H 0 **** 0.1268
16435 H 45.2066 109.079 42.1282 H 0 **** 0.053
16436 H 46.6015 109.647 41.1991 H 0 **** 0.053
16437 H 44.4555 107.716 40.1859 H 0 **** 0.053
16438 H 45.5298 107.574 38.1954 H 0 **** 0.053
16439 H 48.0841 108.67 39.3952 H 0 **** 0.053
16440 H 47.8374 107.266 38.3537 H 0 **** 0.053
16441 H 44.523 103.041 48.384 H 0 **** 0.053
16442 H 45.6128 104.053 49.3487 H 0 **** 0.053
16443 H 43.3192 104.04 50.294 H 0 **** 0.053
16444 H 42.6134 104.551 48.758 H 0 **** 0.053
16445 H 41.5092 105.588 51.5281 H 0 **** 0.053
16446 H 43.0376 104.888 52.0919 H 0 **** 0.053
16447 H 43.3134 106.535 53.8208 H 0 **** 0.053
16448 H 41.6386 105.967 53.9183 H 0 **** 0.053
16449 H 41.6628 108.451 54.0741 H 0 **** 0.053
16450 H 40.9371 107.988 52.521 H 0 **** 0.053
16451 H 43.8343 108.881 53.0355 H 0 **** 0.053
16452 H 41.5082 110.118 51.4164 H 0 **** 0.053
16453 H 42.202 110.728 52.9404 H 0 **** 0.053
16454 H 45.8279 110.401 48.7295 H 0 **** 0.1268
16455 H 46.0577 112.837 48.9894 H 0 **** 0.1268
16456 H 45.7301 96.2452 43.3507 H 0 **** 0.053
16457 H 45.9883 94.9028 42.2857 H 0 **** 0.053
16458 H 43.9996 95.6206 40.8554 H 0 **** 0.053
16459 H 43.7108 96.9752 41.9767 H 0 **** 0.053
16460 H 43.5379 95.2966 42.5448 H 0 **** 0.053
16461 H 47.0557 94.6128 38.8741 H 0 **** 0.053
16462 H 45.9361 94.4368 40.2051 H 0 **** 0.053
16463 H 47.68 94.1842 40.492 H 0 **** 0.053
16464 H 45.0916 99.6181 42.3811 H 0 **** 0.053
16465 H 46.5066 99.3806 43.4488 H 0 **** 0.053
16466 H 45.2136 98.1844 43.3905 H 0 **** 0.053
16467 H 49.6381 97.0133 38.1084 H 0 **** 0.053
16468 H 48.1111 96.3816 37.4437 H 0 **** 0.053
16469 H 49.078 95.4307 38.6095 H 0 **** 0.053
16470 H 51.2001 101.617 36.7352 H 0 **** 0.053
16471 H 49.7092 100.84 36.1251 H 0 **** 0.053
16472 H 50.7639 100.025 37.3178 H 0 **** 0.053
16473 H 49.2879 104.687 36.8221 H 0 **** 0.053
16474 H 50.1005 103.294 36.1499 H 0 **** 0.053
16475 H 50.96 104.306 37.3534 H 0 **** 0.053
16476 H 49.501 106.674 39.3154 H 0 **** 0.41
16477 H 45.3516 109.946 37.4896 H 0 **** 0.053
16478 H 46.9789 109.333 37.1305 H 0 **** 0.053
16479 H 46.7307 110.391 38.5434 H 0 **** 0.053
16480 H 43.4815 109.913 40.7225 H 0 **** 0.053
16481 H 43.5482 109.716 38.9555 H 0 **** 0.053
16482 H 44.741 110.761 39.7942 H 0 **** 0.053
16483 H 45.6123 108.893 44.9296 H 0 **** 0.41
16484 H 46.2657 102.775 44.7846 H 0 **** 0.41
16485 H 41.6478 112.801 52.0972 H 0 **** 0.053
16486 H 42.7538 114.171 52.0917 H 0 **** 0.053
16487 H 42.9783 112.884 53.2918 H 0 **** 0.053
16488 H 43.7921 115.037 50.2887 H 0 **** 0.053
16489 H 45.5144 114.863 49.9217 H 0 **** 0.053
16490 H 44.976 114.828 51.6068 H 0 **** 0.053
16491 C 41.7011 191.926 19.5948 C.2 0 **** 0
16492 C 41.479 190.868 20.4632 C.2 0 **** 0
16493 C 42.3639 189.803 20.497 C.2 0 **** 0
16494 C 43.4631 189.817 19.6746 C.2 0 **** 0
16495 C 43.7213 190.899 18.842 C.2 0 **** 0
16496 C 42.8408 191.961 18.8114 C.2 0 **** 0
16497 C 44.4365 188.655 19.6724 C.3 0 **** -0.106
16498 C 44.0857 187.406 20.4688 C.2 0 **** 0
16499 C 42.9923 187.384 21.289 C.2 0 **** 0
16500 C 42.1158 188.625 21.4363 C.3 0 **** -0.106
16501 C 42.679 186.213 21.9879 C.2 0 **** 0
16502 C 43.4099 185.056 21.8084 C.2 0 **** 0
16503 C 44.5777 185.107 21.056 C.2 0 **** 0
16504 C 44.9156 186.276 20.364 C.2 0 **** 0
16505 C 46.05 186.311 19.5674 C.2 0 **** -0.1268
16506 C 46.8349 185.213 19.283 C.2 0 **** 0
16507 C 46.3715 183.993 19.8929 C.2 0 **** 0
16508 C 45.4253 184.012 20.9208 C.2 0 **** 0.042
16509 C 47.1001 182.668 19.5934 C.3 0 **** 0
16510 C 48.3321 182.704 18.6857 C.3 0 **** 0
16511 C 48.8751 184.086 18.2697 C.2 0 **** 0
16512 C 48.1216 185.276 18.5361 C.2 0 **** 0
16513 C 48.5301 181.437 17.8271 C.3 0 **** -0.106
16514 C 47.2286 180.994 17.1515 C.3 0 **** -0.053
16515 C 46.1242 180.649 18.1963 C.3 0 **** -0.053
16516 C 46.3545 181.312 19.5796 C.3 0 **** -0.106
16517 C 48.7437 186.492 18.1875 C.2 0 **** 0.042
16518 C 49.9907 186.507 17.5997 C.2 0 **** 0.052
16519 C 50.7002 185.335 17.3834 C.2 0 **** 0.052
16520 C 50.1669 184.136 17.7775 C.2 0 **** 0.042
16521 C 52.0685 185.323 16.7538 C.2 0 **** 0.367
16522 C 52.6319 186.649 16.3642 C.2 0 **** 0
16523 C 51.96 187.785 16.5839 C.2 0 **** 0
16524 C 50.612 187.821 17.2005 C.2 0 **** 0.367
16525 C 52.5327 189.123 16.1758 C.3 0 **** -0.106
16526 C 53.3326 188.95 14.8604 C.3 0 **** -0.106
16527 C 54.3621 187.827 14.9894 C.2 0 **** 0
16528 C 54.0098 186.674 15.7268 C.2 0 **** 0.2405
16529 N 54.8525 185.628 15.8645 N.2 0 **** -0.481
16530 C 56.0062 185.664 15.2053 C.2 0 **** 0.2405
16531 C 56.4281 186.8 14.4767 C.2 0 **** 0
16532 C 55.5942 187.886 14.3873 C.2 0 **** 0
16533 C 55.9878 189.128 13.5967 C.3 0 **** -0.106
16534 C 57.4877 189.182 13.2812 C.3 0 **** -0.106
16535 C 57.9772 187.828 12.7792 C.3 0 **** -0.106
16536 C 57.8187 186.775 13.8923 C.3 0 **** -0.053
16537 C 58.1477 185.35 13.3735 C.3 0 **** -0.106
16538 C 57.8868 184.339 14.4584 C.2 0 **** 0
16539 C 56.8121 184.505 15.3343 C.2 0 **** 0
16540 C 56.5608 183.523 16.3096 C.2 0 **** -0.1268
16541 C 57.3606 182.398 16.369 C.2 0 **** -0.1268
16542 C 58.4013 182.207 15.4772 C.2 0 **** 0
16543 C 58.6503 183.177 14.5071 C.2 0 **** 0
16544 C 43.1322 193.165 17.9531 C.3 0 **** -0.106
16545 C 42.6501 192.944 16.5037 C.3 0 **** -0.159
16546 C 40.6897 193.04 19.5147 C.3 0 **** -0.159
16547 C 44.9619 190.848 17.9803 C.3 0 **** -0.159
16548 C 40.2711 190.869 21.3679 C.3 0 **** -0.159
16549 C 41.4665 186.25 22.9185 C.3 0 **** -0.159
16550 C 42.8715 183.797 22.446 C.3 0 **** -0.159
16551 O 45.2969 182.911 21.7205 O.3 0 **** -0.452
16552 C 45.9936 179.152 18.4844 C.3 0 **** -0.159
16553 C 47.5649 179.838 16.2017 C.3 0 **** -0.159
16554 O 50.8542 182.955 17.6994 O.3 0 **** -0.452
16555 O 48.1267 187.673 18.4392 O.3 0 **** -0.452
16556 O 50.0459 188.851 17.3784 O.2 0 **** -0.419
16557 O 52.6405 184.293 16.5433 O.2 0 **** -0.419
16558 C 59.7635 182.952 13.4974 C.3 0 **** -0.159
16559 C 59.2152 180.933 15.5851 C.3 0 **** -0.159
16560 H 44.5725 188.343 18.6109 H 0 **** 0.053
16561 H 45.4293 189.029 20.0239 H 0 **** 0.053
16562 H 42.2087 188.998 22.485 H 0 **** 0.053
16563 H 41.0573 188.308 21.3089 H 0 **** 0.053
16564 H 46.259 187.263 19.1338 H 0 **** 0.1268
16565 H 49.2865 181.591 17.0556 H 0 **** 0.053
16566 H 48.8889 180.661 18.5076 H 0 **** 0.053
16567 H 46.8645 181.837 16.5371 H 0 **** 0.053
16568 H 45.169 181.011 17.7939 H 0 **** 0.053
16569 H 46.993 180.662 20.1847 H 0 **** 0.053
16570 H 45.3852 181.385 20.0873 H 0 **** 0.053
16571 H 51.7537 189.893 16.0272 H 0 **** 0.053
16572 H 53.1886 189.487 16.9857 H 0 **** 0.053
16573 H 53.7795 189.929 14.6176 H 0 **** 0.053
16574 H 52.6196 188.731 14.037 H 0 **** 0.053
16575 H 55.4222 189.15 12.6454 H 0 **** 0.053
16576 H 55.726 190.054 14.1404 H 0 **** 0.053
16577 H 58.052 189.452 14.1943 H 0 **** 0.053
16578 H 57.6987 189.975 12.54 H 0 **** 0.053
16579 H 59.0349 187.878 12.4574 H 0 **** 0.053
16580 H 57.3887 187.523 11.8947 H 0 **** 0.053
16581 H 58.5521 187.025 14.6975 H 0 **** 0.053
16582 H 57.5113 185.131 12.4859 H 0 **** 0.053
16583 H 59.1995 185.343 13.0137 H 0 **** 0.053
16584 H 55.7324 183.635 17.0203 H 0 **** 0.1268
16585 H 57.1551 181.631 17.133 H 0 **** 0.1268
16586 H 44.21 193.419 17.9425 H 0 **** 0.053
16587 H 42.6609 194.082 18.3479 H 0 **** 0.053
16588 H 41.5671 192.74 16.4727 H 0 **** 0.053
16589 H 43.1685 192.093 16.0323 H 0 **** 0.053
16590 H 42.8361 193.835 15.8706 H 0 **** 0.053
16591 H 39.6581 192.701 19.7341 H 0 **** 0.053
16592 H 40.6215 193.486 18.5043 H 0 **** 0.053
16593 H 40.9215 193.865 20.2229 H 0 **** 0.053
16594 H 44.931 189.991 17.2701 H 0 **** 0.053
16595 H 45.8842 190.731 18.5893 H 0 **** 0.053
16596 H 45.1298 191.735 17.352 H 0 **** 0.053
16597 H 40.4036 190.26 22.2832 H 0 **** 0.053
16598 H 39.3698 190.474 20.8487 H 0 **** 0.053
16599 H 40.0218 191.881 21.7392 H 0 **** 0.053
16600 H 41.5846 185.589 23.7948 H 0 **** 0.053
16601 H 40.5302 185.951 22.3936 H 0 **** 0.053
16602 H 41.2801 187.255 23.3615 H 0 **** 0.053
16603 H 42.9536 182.918 21.7693 H 0 **** 0.053
16604 H 41.7737 183.822 22.6857 H 0 **** 0.053
16605 H 43.3906 183.529 23.4028 H 0 **** 0.053
16606 H 46.1003 182.386 21.6731 H 0 **** 0.41
16607 H 45.681 178.592 17.5928 H 0 **** 0.053
16608 H 45.2328 178.974 19.2679 H 0 **** 0.053
16609 H 46.9489 178.728 18.8517 H 0 **** 0.053
16610 H 48.2955 180.161 15.4365 H 0 **** 0.053
16611 H 46.669 179.48 15.6723 H 0 **** 0.053
16612 H 48.0203 178.985 16.7433 H 0 **** 0.053
16613 H 51.6774 183.115 17.2138 H 0 **** 0.41
16614 H 48.6636 188.407 18.1034 H 0 **** 0.41
16615 H 59.4104 183.114 12.462 H 0 **** 0.053
16616 H 60.1733 181.924 13.5115 H 0 **** 0.053
16617 H 60.6216 183.633 13.6729 H 0 **** 0.053
16618 H 59.1251 180.308 14.6777 H 0 **** 0.053
16619 H 58.8906 180.302 16.4311 H 0 **** 0.053
16620 H 60.2874 181.142 15.7436 H 0 **** 0.053
16621 C 90.7504 154.817 48.5098 C.2 0 **** 0
16622 C 91.7659 154.118 47.8759 C.2 0 **** 0
16623 C 91.8934 152.752 48.0724 C.2 0 **** 0
16624 C 90.9968 152.104 48.8859 C.2 0 **** 0
16625 C 89.9436 152.789 49.4799 C.2 0 **** 0
16626 C 89.8166 154.148 49.2815 C.2 0 **** 0
16627 C 91.1239 150.615 49.1381 C.3 0 **** -0.106
16628 C 92.3536 149.887 48.6131 C.2 0 **** 0
16629 C 93.2515 150.525 47.8035 C.2 0 **** 0
16630 C 93.0206 151.978 47.3938 C.3 0 **** -0.106
16631 C 94.3861 149.84 47.3578 C.2 0 **** 0
16632 C 94.6561 148.553 47.78 C.2 0 **** 0
16633 C 93.6952 147.871 48.5179 C.2 0 **** 0
16634 C 92.545 148.538 48.9575 C.2 0 **** 0
16635 C 91.6132 147.875 49.7418 C.2 0 **** -0.1268
16636 C 91.7894 146.607 50.2549 C.2 0 **** 0
16637 C 93.0511 146.008 49.9047 C.2 0 **** 0
16638 C 93.846 146.537 48.885 C.2 0 **** 0.042
16639 C 93.4233 144.626 50.479 C.3 0 **** 0
16640 C 92.4062 143.912 51.3723 C.3 0 **** 0
16641 C 91.002 144.536 51.5002 C.2 0 **** 0
16642 C 90.7374 145.847 50.9861 C.2 0 **** 0
16643 C 93.0322 143.033 52.4759 C.3 0 **** -0.106
16644 C 94.1614 143.759 53.2146 C.3 0 **** -0.053
16645 C 95.324 144.15 52.2521 C.3 0 **** -0.053
16646 C 94.8919 144.23 50.7642 C.3 0 **** -0.106
16647 C 89.403 146.291 51.0828 C.2 0 **** 0.042
16648 C 88.435 145.503 51.6686 C.2 0 **** 0.052
16649 C 88.7248 144.228 52.1295 C.2 0 **** 0.052
16650 C 89.9911 143.726 51.985 C.2 0 **** 0.042
16651 C 87.6845 143.341 52.7623 C.2 0 **** 0.367
16652 C 86.3086 143.908 52.876 C.2 0 **** 0
16653 C 86.0177 145.132 52.4195 C.2 0 **** 0
16654 C 87.0253 146.022 51.7945 C.2 0 **** 0.367
16655 C 84.6244 145.704 52.5485 C.3 0 **** -0.106
16656 C 84 145.215 53.8797 C.3 0 **** -0.106
16657 C 84.0792 143.693 53.9959 C.2 0 **** 0
16658 C 85.2349 143.041 53.5088 C.2 0 **** 0.2405
16659 N 85.3924 141.703 53.5978 N.2 0 **** -0.481
16660 C 84.4648 141.007 54.2473 C.2 0 **** 0.2405
16661 C 83.2733 141.596 54.7303 C.2 0 **** 0
16662 C 83.0883 142.948 54.5853 C.2 0 **** 0
16663 C 81.8348 143.639 55.107 C.3 0 **** -0.106
16664 C 80.6996 142.657 55.4201 C.3 0 **** -0.106
16665 C 81.2315 141.456 56.1955 C.3 0 **** -0.106
16666 C 82.2331 140.677 55.3217 C.3 0 **** -0.053
16667 C 82.9244 139.546 56.1267 C.3 0 **** -0.106
16668 C 83.9643 138.874 55.2704 C.2 0 **** 0
16669 C 84.726 139.619 54.3683 C.2 0 **** 0
16670 C 85.7242 138.976 53.614 C.2 0 **** -0.1268
16671 C 85.9563 137.627 53.7961 C.2 0 **** -0.1268
16672 C 85.2344 136.89 54.7188 C.2 0 **** 0
16673 C 84.2464 137.526 55.4703 C.2 0 **** 0
16674 C 88.6513 154.897 49.8761 C.3 0 **** -0.106
16675 C 88.9414 155.309 51.3347 C.3 0 **** -0.159
16676 C 90.6721 156.313 48.3474 C.3 0 **** -0.159
16677 C 88.9881 152.002 50.3469 C.3 0 **** -0.159
16678 C 92.7398 154.841 46.9776 C.3 0 **** -0.159
16679 C 95.3418 150.586 46.4269 C.3 0 **** -0.159
16680 C 96.0021 147.976 47.4102 C.3 0 **** -0.159
16681 O 94.8158 145.753 48.3275 O.3 0 **** -0.452
16682 C 96.5014 143.173 52.2779 C.3 0 **** -0.159
16683 C 94.5997 142.872 54.3858 C.3 0 **** -0.159
16684 O 90.3218 142.438 52.3117 O.3 0 **** -0.452
16685 O 89.046 147.501 50.5848 O.3 0 **** -0.452
16686 O 86.7287 147.104 51.4008 O.2 0 **** -0.419
16687 O 87.9726 142.259 53.1856 O.2 0 **** -0.419
16688 C 83.4812 136.733 56.5167 C.3 0 **** -0.159
16689 C 85.5681 135.421 54.8852 C.3 0 **** -0.159
16690 H 91.098 150.466 50.2425 H 0 **** 0.053
16691 H 90.2148 150.111 48.7277 H 0 **** 0.053
16692 H 92.8419 152.008 46.2919 H 0 **** 0.053
16693 H 93.9677 152.534 47.5728 H 0 **** 0.053
16694 H 90.7413 148.445 49.9721 H 0 **** 0.1268
16695 H 92.2855 142.718 53.2069 H 0 **** 0.053
16696 H 93.4168 142.142 51.9739 H 0 **** 0.053
16697 H 93.7428 144.689 53.6381 H 0 **** 0.053
16698 H 95.6857 145.139 52.5612 H 0 **** 0.053
16699 H 94.9817 143.237 50.3131 H 0 **** 0.053
16700 H 95.5925 144.892 50.2421 H 0 **** 0.053
16701 H 84.6129 146.809 52.5271 H 0 **** 0.053
16702 H 84.0226 145.363 51.6881 H 0 **** 0.053
16703 H 82.9685 145.606 53.9202 H 0 **** 0.053
16704 H 84.5381 145.699 54.723 H 0 **** 0.053
16705 H 82.0834 144.202 56.0275 H 0 **** 0.053
16706 H 81.4481 144.378 54.3817 H 0 **** 0.053
16707 H 80.2426 142.301 54.4772 H 0 **** 0.053
16708 H 79.8945 143.163 55.9844 H 0 **** 0.053
16709 H 80.4092 140.786 56.5117 H 0 **** 0.053
16710 H 81.7339 141.801 57.1174 H 0 **** 0.053
16711 H 81.6556 140.205 54.4901 H 0 **** 0.053
16712 H 83.4002 139.984 57.0334 H 0 **** 0.053
16713 H 82.1404 138.847 56.4916 H 0 **** 0.053
16714 H 86.3269 139.535 52.8874 H 0 **** 0.1268
16715 H 86.7431 137.131 53.2051 H 0 **** 0.1268
16716 H 87.7155 154.305 49.8456 H 0 **** 0.053
16717 H 88.3965 155.801 49.2958 H 0 **** 0.053
16718 H 89.8401 155.945 51.3961 H 0 **** 0.053
16719 H 89.1055 154.429 51.9771 H 0 **** 0.053
16720 H 88.1005 155.884 51.7726 H 0 **** 0.053
16721 H 91.6632 156.782 48.1918 H 0 **** 0.053
16722 H 90.2673 156.821 49.2434 H 0 **** 0.053
16723 H 90.0317 156.606 47.4865 H 0 **** 0.053
16724 H 89.5088 151.544 51.2182 H 0 **** 0.053
16725 H 88.5068 151.172 49.7849 H 0 **** 0.053
16726 H 88.1629 152.586 50.7805 H 0 **** 0.053
16727 H 93.1995 154.19 46.2093 H 0 **** 0.053
16728 H 93.5756 155.291 47.558 H 0 **** 0.053
16729 H 92.2591 155.656 46.4034 H 0 **** 0.053
16730 H 95.843 149.915 45.7072 H 0 **** 0.053
16731 H 96.1344 151.128 46.9921 H 0 **** 0.053
16732 H 94.833 151.34 45.7841 H 0 **** 0.053
16733 H 96.464 147.418 48.2545 H 0 **** 0.053
16734 H 96.7887 148.739 47.1587 H 0 **** 0.053
16735 H 95.9585 147.277 46.5348 H 0 **** 0.053
16736 H 94.6137 144.828 48.4926 H 0 **** 0.41
16737 H 96.9875 143.148 53.2624 H 0 **** 0.053
16738 H 97.2695 143.474 51.5403 H 0 **** 0.053
16739 H 96.1783 142.146 52.0161 H 0 **** 0.053
16740 H 93.7541 142.69 55.0754 H 0 **** 0.053
16741 H 95.4049 143.345 54.9676 H 0 **** 0.053
16742 H 94.9511 141.88 54.0364 H 0 **** 0.053
16743 H 89.5645 142.037 52.764 H 0 **** 0.41
16744 H 88.111 147.674 50.7713 H 0 **** 0.41
16745 H 83.4719 137.254 57.4926 H 0 **** 0.053
16746 H 83.9121 135.734 56.7194 H 0 **** 0.053
16747 H 82.4272 136.564 56.2137 H 0 **** 0.053
16748 H 85.9414 135.197 55.9011 H 0 **** 0.053
16749 H 86.3545 135.091 54.1838 H 0 **** 0.053
16750 H 84.6911 134.777 54.6996 H 0 **** 0.053
16751 C 78.0899 135.842 50.5056 C.2 0 **** 0
16752 C 77.6734 135.362 49.2738 C.2 0 **** 0
16753 C 78.5818 134.746 48.4275 C.2 0 **** 0
16754 C 79.8867 134.607 48.8311 C.2 0 **** 0
16755 C 80.2983 135.037 50.0872 C.2 0 **** 0
16756 C 79.3924 135.647 50.9295 C.2 0 **** 0
16757 C 80.9081 133.959 47.9184 C.3 0 **** -0.106
16758 C 80.5024 133.62 46.4904 C.2 0 **** 0
16759 C 79.2054 133.757 46.0807 C.2 0 **** 0
16760 C 78.1354 134.232 47.0612 C.3 0 **** -0.106
16761 C 78.8665 133.464 44.7558 C.2 0 **** 0
16762 C 79.8305 133.111 43.8325 C.2 0 **** 0
16763 C 81.1279 132.873 44.2717 C.2 0 **** 0
16764 C 81.4798 133.144 45.5994 C.2 0 **** 0
16765 C 82.7872 132.962 46.0243 C.2 0 **** -0.1268
16766 C 83.84 132.649 45.1899 C.2 0 **** 0
16767 C 83.4668 132.523 43.8049 C.2 0 **** 0
16768 C 82.1279 132.408 43.423 C.2 0 **** 0.042
16769 C 84.5547 132.261 42.7445 C.3 0 **** 0
16770 C 86.0024 132.095 43.2131 C.3 0 **** 0
16771 C 86.26 132.022 44.7315 C.2 0 **** 0
16772 C 85.2145 132.327 45.6638 C.2 0 **** 0
16773 C 87.0604 132.603 42.2107 C.3 0 **** -0.106
16774 C 86.7047 133.984 41.6535 C.3 0 **** -0.053
16775 C 85.3469 133.966 40.8877 C.3 0 **** -0.053
16776 C 84.4248 132.787 41.2948 C.3 0 **** -0.106
16777 C 85.5318 132.152 47.0258 C.2 0 **** 0.042
16778 C 86.7893 131.741 47.4136 C.2 0 **** 0.052
16779 C 87.766 131.429 46.4798 C.2 0 **** 0.052
16780 C 87.4769 131.51 45.1433 C.2 0 **** 0.042
16781 C 89.1438 130.966 46.8747 C.2 0 **** 0.367
16782 C 89.4144 130.861 48.3388 C.2 0 **** 0
16783 C 88.4722 131.145 49.2458 C.2 0 **** 0
16784 C 87.1106 131.604 48.8801 C.2 0 **** 0.367
16785 C 88.7579 131.047 50.7268 C.3 0 **** -0.106
16786 C 90.224 131.474 50.9873 C.3 0 **** -0.106
16787 C 91.1893 130.691 50.097 C.2 0 **** 0
16788 C 90.7933 130.397 48.7726 C.2 0 **** 0.2405
16789 N 91.5983 129.732 47.9164 N.2 0 **** -0.481
16790 C 92.83 129.436 48.3192 C.2 0 **** 0.2405
16791 C 93.2747 129.678 49.64 C.2 0 **** 0
16792 C 92.4325 130.299 50.5273 C.2 0 **** 0
16793 C 92.867 130.605 51.9553 C.3 0 **** -0.106
16794 C 94.1154 129.821 52.3783 C.3 0 **** -0.106
16795 C 95.1736 129.869 51.2813 C.3 0 **** -0.106
16796 C 94.6426 129.166 50.0177 C.3 0 **** -0.053
16797 C 95.6185 129.337 48.8237 C.3 0 **** -0.106
16798 C 95.0211 128.723 47.5854 C.2 0 **** 0
16799 C 93.6477 128.805 47.3483 C.2 0 **** 0
16800 C 93.1198 128.265 46.1617 C.2 0 **** -0.1268
16801 C 93.9684 127.689 45.2363 C.2 0 **** -0.1268
16802 C 95.3356 127.642 45.4448 C.2 0 **** 0
16803 C 95.8616 128.18 46.6192 C.2 0 **** 0
16804 C 79.8095 136.072 52.3145 C.3 0 **** -0.106
16805 C 80.4705 137.467 52.2944 C.3 0 **** -0.159
16806 C 77.108 136.577 51.3808 C.3 0 **** -0.159
16807 C 81.7473 134.831 50.4648 C.3 0 **** -0.159
16808 C 76.2342 135.514 48.8454 C.3 0 **** -0.159
16809 C 77.3971 133.6 44.3562 C.3 0 **** -0.159
16810 C 79.3977 133.016 42.3885 C.3 0 **** -0.159
16811 O 81.8345 131.915 42.1827 O.3 0 **** -0.452
16812 C 85.4966 133.854 39.3691 C.3 0 **** -0.159
16813 C 87.8876 134.465 40.8045 C.3 0 **** -0.159
16814 O 88.3511 131.111 44.1684 O.3 0 **** -0.452
16815 O 84.5942 132.374 47.981 O.3 0 **** -0.452
16816 O 86.3002 131.847 49.715 O.2 0 **** -0.419
16817 O 89.9783 130.741 46.0472 O.2 0 **** -0.419
16818 C 97.3658 128.171 46.8338 C.3 0 **** -0.159
16819 C 96.2055 127.022 44.3696 C.3 0 **** -0.159
16820 H 81.7803 134.65 47.859 H 0 **** 0.053
16821 H 81.2753 133.025 48.4104 H 0 **** 0.053
16822 H 77.4157 133.395 47.2278 H 0 **** 0.053
16823 H 77.5605 135.045 46.565 H 0 **** 0.053
16824 H 82.943 133.133 47.0657 H 0 **** 0.1268
16825 H 88.0501 132.657 42.6679 H 0 **** 0.053
16826 H 87.0955 131.865 41.4057 H 0 **** 0.053
16827 H 86.6037 134.676 42.5089 H 0 **** 0.053
16828 H 84.8286 134.906 41.119 H 0 **** 0.053
16829 H 84.6704 131.915 40.6826 H 0 **** 0.053
16830 H 83.3904 133.069 41.0641 H 0 **** 0.053
16831 H 88.0835 131.677 51.3342 H 0 **** 0.053
16832 H 88.5933 130.004 51.0489 H 0 **** 0.053
16833 H 90.417 131.343 52.0659 H 0 **** 0.053
16834 H 90.3158 132.565 50.7958 H 0 **** 0.053
16835 H 93.0769 131.687 52.0501 H 0 **** 0.053
16836 H 92.0654 130.375 52.6803 H 0 **** 0.053
16837 H 93.8464 128.765 52.5705 H 0 **** 0.053
16838 H 94.5175 130.217 53.3292 H 0 **** 0.053
16839 H 96.1153 129.39 51.6103 H 0 **** 0.053
16840 H 95.4171 130.921 51.0451 H 0 **** 0.053
16841 H 94.5685 128.075 50.2478 H 0 **** 0.053
16842 H 95.8058 130.423 48.6606 H 0 **** 0.053
16843 H 96.5967 128.89 49.105 H 0 **** 0.053
16844 H 92.0425 128.303 45.9574 H 0 **** 0.1268
16845 H 93.5486 127.272 44.3066 H 0 **** 0.1268
16846 H 80.5052 135.348 52.7817 H 0 **** 0.053
16847 H 78.9583 136.093 53.0179 H 0 **** 0.053
16848 H 79.784 138.225 51.8822 H 0 **** 0.053
16849 H 81.3856 137.469 51.6798 H 0 **** 0.053
16850 H 80.7577 137.799 53.3122 H 0 **** 0.053
16851 H 76.3338 137.116 50.801 H 0 **** 0.053
16852 H 77.5859 137.363 51.9958 H 0 **** 0.053
16853 H 76.5771 135.892 52.0782 H 0 **** 0.053
16854 H 82.4301 135.381 49.7791 H 0 **** 0.053
16855 H 82.0383 133.759 50.4213 H 0 **** 0.053
16856 H 82.0188 135.173 51.4747 H 0 **** 0.053
16857 H 75.9097 134.755 48.1069 H 0 **** 0.053
16858 H 76.0461 136.509 48.3854 H 0 **** 0.053
16859 H 75.5279 135.401 49.69 H 0 **** 0.053
16860 H 77.1027 132.881 43.5719 H 0 **** 0.053
16861 H 77.1604 134.623 43.9824 H 0 **** 0.053
16862 H 76.691 133.392 45.1923 H 0 **** 0.053
16863 H 80.1451 133.466 41.6977 H 0 **** 0.053
16864 H 78.4594 133.583 42.1396 H 0 **** 0.053
16865 H 79.2221 131.963 42.0473 H 0 **** 0.053
16866 H 82.5827 131.41 41.8538 H 0 **** 0.41
16867 H 86.0128 134.727 38.9463 H 0 **** 0.053
16868 H 84.5029 133.794 38.886 H 0 **** 0.053
16869 H 86.0553 132.941 39.0857 H 0 **** 0.053
16870 H 88.8064 134.531 41.4171 H 0 **** 0.053
16871 H 87.6993 135.464 40.3832 H 0 **** 0.053
16872 H 88.1029 133.765 39.9729 H 0 **** 0.053
16873 H 89.2013 130.91 44.5878 H 0 **** 0.41
16874 H 84.982 132.256 48.8611 H 0 **** 0.41
16875 H 97.7398 129.171 47.1229 H 0 **** 0.053
16876 H 97.9412 127.89 45.9309 H 0 **** 0.053
16877 H 97.6633 127.456 47.6286 H 0 **** 0.053
16878 H 96.9072 127.756 43.9334 H 0 **** 0.053
16879 H 95.609 126.624 43.53 H 0 **** 0.053
16880 H 96.8019 126.178 44.7588 H 0 **** 0.053
16881 C1 72.3995 153.379 48.0772 C.ar 0 **** 0.042
16882 C2 71.0812 153.452 47.6673 C.ar 0 **** -0.1268
16883 C3 70.17 154.238 48.3529 C.ar 0 **** 0
16884 C4 70.5569 154.975 49.4731 C.ar 0 **** 0
16885 C5 71.8952 154.905 49.8714 C.ar 0 **** -0.1268
16886 C6 72.8123 154.111 49.1992 C.ar 0 **** 0
16887 C7 69.3777 155.678 49.955 C.ar 0 **** 0
16888 C8 68.3259 155.361 49.1133 C.ar 0 **** 0
16889 C9 68.7192 154.421 48.0258 C.3 0 **** -0.106
16890 C10 67.0686 155.913 49.3321 C.ar 0 **** 0
16891 C11 66.8489 156.8 50.4068 C.ar 0 **** 0
16892 C12 67.9636 157.082 51.2431 C.ar 0 **** 0
16893 C13 69.2256 156.516 51.0313 C.ar 0 **** 0
16894 C14 70.372 156.849 51.9441 C.3 0 **** -0.106
16895 C15 69.8775 157.117 53.3657 C.3 0 **** -0.106
16896 C16 68.9442 158.296 53.3094 C.3 0 **** -0.106
16897 C17 67.7481 158.033 52.4191 C.ar 0 **** 0
16898 C18 66.5558 158.636 52.6603 C.ar 0 **** 0
16899 C19 65.4808 158.402 51.8497 C.ar 0 **** 0
16900 C20 65.5578 157.39 50.6399 C.ar 0 **** 0
16901 C21 64.4812 156.975 49.7576 C.ar 0 **** 0
16902 C22 64.8021 156.117 48.701 C.ar 0 **** 0
16903 C23 66.0263 155.589 48.4788 C.ar 0 **** 0.042
16904 C24 64.1702 159.125 52.1242 C.3 0 **** -0.106
16905 C25 64.2172 160.278 53.1688 C.ar 0 **** 0
16906 C26 65.318 160.444 53.9727 C.ar 0 **** 0
16907 C27 66.524 159.569 53.8674 C.3 0 **** -0.106
16908 C28 65.3389 161.443 54.944 C.ar 0 **** 0.042
16909 C29 64.2635 162.29 55.1503 C.ar 0 **** 0
16910 C30 63.166 162.114 54.3217 C.ar 0 **** 0
16911 C31 63.1265 161.126 53.3417 C.ar 0 **** 0
16912 C32 61.9146 162.998 54.4486 C.ar 0 **** 0
16913 C33 62.0079 164.061 55.5483 C.3 0 **** -0.106
16914 C34 62.8782 163.617 56.7223 C.3 0 **** -0.106
16915 C35 64.2936 163.369 56.2055 C.3 0 **** -0.106
16916 C36 61.8769 161.022 52.4909 C.ar 0 **** -0.1268
16917 C37 60.8332 161.866 52.7041 C.ar 0 **** 0.0265
16918 C38 60.8368 162.821 53.6448 C.ar 0 **** -0.1268
16919 C39 63.6993 155.743 47.7817 C.3 0 **** -0.106
16920 C40 62.6026 156.478 48.4811 C.ar 0 **** 0
16921 C41 63.0415 157.182 49.6037 C.ar 0 **** 0
16922 C42 62.035 157.854 50.3279 C.ar 0 **** -0.1268
16923 C43 60.687 157.849 49.9128 C.ar 0 **** 0
16924 C44 60.2852 157.141 48.7603 C.ar 0 **** 0
16925 C45 61.2684 156.438 48.0458 C.ar 0 **** 0
16926 C46 60.8818 155.696 46.9084 C.ar 0 **** -0.1268
16927 C47 59.569 155.638 46.4663 C.ar 0 **** 0
16928 C48 58.6158 156.335 47.1861 C.ar 0 **** -0.1268
16929 C49 58.9381 157.088 48.3269 C.ar 0 **** 0
16930 C50 57.968 157.788 49.0664 C.ar 0 **** 0.042
16931 C51 58.3301 158.497 50.1946 C.ar 0 **** -0.1268
16932 C52 59.6553 158.525 50.6205 C.ar 0 **** -0.1268
16933 O53 73.3077 152.602 47.3984 O.3 0 **** -0.452
16934 C54 74.2625 154.057 49.6546 C.3 0 **** -0.159
16935 O55 66.2155 154.758 47.4391 O.3 0 **** -0.452
16936 C56 59.298 154.79 45.2281 C.3 0 **** -0.106
16937 C57 57.8616 154.929 44.7117 C.3 0 **** -0.159
16938 O58 59.7439 161.731 51.9299 O.3 0 **** -0.4365
16939 O59 66.4226 161.641 55.7561 O.3 0 **** -0.452
16940 O60 56.6567 157.822 48.7585 O.3 0 **** -0.452
16941 H61 70.7152 152.888 46.7782 H 0 **** 0.1268
16942 H62 72.3076 155.468 50.7192 H 0 **** 0.1268
16943 H63 68.1942 153.45 48.0709 H 0 **** 0.053
16944 H64 68.6127 154.849 47.0119 H 0 **** 0.053
16945 H65 71.0838 156.031 52.0099 H 0 **** 0.053
16946 H66 70.9119 157.752 51.5816 H 0 **** 0.053
16947 H67 69.3744 156.21 53.7811 H 0 **** 0.053
16948 H68 70.7499 157.33 54.0518 H 0 **** 0.053
16949 H69 68.6293 158.532 54.3334 H 0 **** 0.053
16950 H70 69.5024 159.173 52.9372 H 0 **** 0.053
16951 H71 63.8075 159.555 51.1671 H 0 **** 0.053
16952 H72 67.4035 160.217 53.794 H 0 **** 0.053
16953 H73 62.4274 164.989 55.1091 H 0 **** 0.053
16954 H74 60.9841 164.295 55.8713 H 0 **** 0.053
16955 H75 62.8862 164.394 57.4968 H 0 **** 0.053
16956 H76 62.467 162.707 57.1821 H 0 **** 0.053
16957 H77 64.7027 164.289 55.7666 H 0 **** 0.053
16958 H78 64.9487 163.081 57.0201 H 0 **** 0.053
16959 H79 61.8582 160.277 51.7189 H 0 **** 0.1268
16960 H80 59.9963 163.482 53.7874 H 0 **** 0.1268
16961 H81 63.8383 156.124 46.7578 H 0 **** 0.053
16962 H82 63.4953 154.66 47.7628 H 0 **** 0.053
16963 H83 62.19 158.396 51.2497 H 0 **** 0.1268
16964 H84 61.6459 155.137 46.3378 H 0 **** 0.1268
16965 H85 57.5845 156.287 46.846 H 0 **** 0.1268
16966 H86 57.5859 159.048 50.793 H 0 **** 0.1268
16967 H87 59.933 159.075 51.5637 H 0 **** 0.1268
16968 H88 72.8558 152.183 46.6781 H 0 **** 0.41
16969 H89 74.6943 153.067 49.4695 H 0 **** 0.053
16970 H90 74.3625 154.254 50.731 H 0 **** 0.053
16971 H91 74.8677 154.797 49.107 H 0 **** 0.053
16972 H92 65.4069 154.637 46.9609 H 0 **** 0.41
16973 H93 59.9848 155.082 44.4267 H 0 **** 0.053
16974 H94 57.6986 154.311 43.8067 H 0 **** 0.053
16975 H95 57.6244 155.975 44.437 H 0 **** 0.053
16976 H96 57.1224 154.595 45.4636 H 0 **** 0.053
16977 H97 59.8852 161.094 51.2484 H 0 **** 0.41
16978 H98 67.0979 161.013 55.5557 H 0 **** 0.41
16979 H99 56.5025 157.304 47.9787 H 0 **** 0.41
16980 H100 63.4768 158.366 52.5414 H 0 **** 0.053
16981 H101 66.6046 158.952 54.7693 H 0 **** 0.053
16982 H102 59.4916 153.736 45.4552 H 0 **** 0.053
16983 C1 36.8407 180.833 59.5203 C.ar 0 **** 0.042
16984 C2 38.1528 180.401 59.4725 C.ar 0 **** -0.1268
16985 C3 38.9783 180.524 60.5779 C.ar 0 **** 0
16986 C4 38.5091 181.087 61.7655 C.ar 0 **** 0
16987 C5 37.1768 181.509 61.8077 C.ar 0 **** -0.1268
16988 C6 36.3461 181.402 60.7024 C.ar 0 **** 0
16989 C7 39.612 181.074 62.7143 C.ar 0 **** 0
16990 C8 40.7008 180.496 62.085 C.ar 0 **** 0
16991 C9 40.4111 180.097 60.6786 C.3 0 **** -0.106
16992 C10 41.8993 180.339 62.7723 C.ar 0 **** 0
16993 C11 42.0211 180.761 64.1129 C.ar 0 **** 0
16994 C12 40.8729 181.355 64.7047 C.ar 0 **** 0
16995 C13 39.6709 181.526 64.0089 C.ar 0 **** 0
16996 C14 38.4853 182.158 64.6823 C.3 0 **** -0.106
16997 C15 38.9316 183.195 65.7134 C.3 0 **** -0.106
16998 C16 39.7548 182.481 66.751 C.3 0 **** -0.106
16999 C17 40.9833 181.829 66.1531 C.ar 0 **** 0
17000 C18 42.112 181.665 66.8901 C.ar 0 **** 0
17001 C19 43.2159 181.068 66.3489 C.ar 0 **** 0
17002 C20 43.2496 180.594 64.8427 C.ar 0 **** 0
17003 C21 44.3725 180.034 64.1119 C.ar 0 **** 0
17004 C22 44.1471 179.615 62.7958 C.ar 0 **** 0
17005 C23 42.9796 179.756 62.1298 C.ar 0 **** 0.042
17006 C24 44.4512 180.865 67.2141 C.3 0 **** -0.106
17007 C25 44.2841 181.128 68.7392 C.ar 0 **** 0
17008 C26 43.1606 181.756 69.2177 C.ar 0 **** 0
17009 C27 42.0407 182.181 68.3247 C.3 0 **** -0.106
17010 C28 43.0338 182.04 70.576 C.ar 0 **** 0.042
17011 C29 44.0247 181.721 71.4884 C.ar 0 **** 0
17012 C30 45.1461 181.077 70.9889 C.ar 0 **** 0
17013 C31 45.2905 180.779 69.6361 C.ar 0 **** 0
17014 C32 46.3101 180.665 71.9045 C.ar 0 **** 0
17015 C33 46.1042 181.025 73.3792 C.3 0 **** -0.106
17016 C34 45.2597 182.284 73.5645 C.3 0 **** -0.106
17017 C35 43.8806 182.033 72.9588 C.3 0 **** -0.106
17018 C36 46.5577 180.072 69.1982 C.ar 0 **** -0.1268
17019 C37 47.5177 179.762 70.1091 C.ar 0 **** 0.0265
17020 C38 47.4126 180.046 71.4149 C.ar 0 **** -0.1268
17021 C39 45.2931 179.001 62.0812 C.3 0 **** -0.106
17022 C40 46.3078 179.157 63.1667 C.ar 0 **** 0
17023 C41 45.7897 179.741 64.3244 C.ar 0 **** 0
17024 C42 46.7198 179.954 65.363 C.ar 0 **** -0.1268
17025 C43 48.0688 179.559 65.2495 C.ar 0 **** 0
17026 C44 48.5507 178.952 64.0697 C.ar 0 **** 0
17027 C45 47.6465 178.763 63.0123 C.ar 0 **** 0
17028 C46 48.1159 178.188 61.8109 C.ar 0 **** -0.1268
17029 C47 49.4352 177.799 61.635 C.ar 0 **** 0
17030 C48 50.3098 177.998 62.6877 C.ar 0 **** -0.1268
17031 C49 49.9034 178.566 63.9069 C.ar 0 **** 0
17032 C50 50.794 178.778 64.9746 C.ar 0 **** 0.042
17033 C51 50.3522 179.363 66.1452 C.ar 0 **** -0.1268
17034 C52 49.0237 179.755 66.2853 C.ar 0 **** -0.1268
17035 O53 36.0171 180.712 58.4268 O.3 0 **** -0.452
17036 C54 34.9 181.867 60.7794 C.3 0 **** -0.159
17037 O55 42.8838 179.334 60.8567 O.3 0 **** -0.452
17038 C56 49.8003 177.201 60.2807 C.3 0 **** -0.106
17039 C57 51.2257 176.639 60.2406 C.3 0 **** -0.159
17040 O58 48.6262 179.141 69.672 O.3 0 **** -0.4365
17041 O59 41.9238 182.657 71.0864 O.3 0 **** -0.452
17042 O60 52.1009 178.451 64.9503 O.3 0 **** -0.452
17043 H61 38.5814 179.94 58.5533 H 0 **** 0.1268
17044 H62 36.702 181.936 62.7014 H 0 **** 0.1268
17045 H63 41.0214 180.638 59.9325 H 0 **** 0.053
17046 H64 40.4937 179.009 60.5015 H 0 **** 0.053
17047 H65 37.8497 182.678 63.9713 H 0 **** 0.053
17048 H66 37.8711 181.388 65.1988 H 0 **** 0.053
17049 H67 39.5088 184.014 65.2183 H 0 **** 0.053
17050 H68 38.0333 183.691 66.1865 H 0 **** 0.053
17051 H69 40.0315 183.207 67.5259 H 0 **** 0.053
17052 H70 39.1249 181.717 67.2395 H 0 **** 0.053
17053 H71 44.7877 179.814 67.0916 H 0 **** 0.053
17054 H72 41.1071 181.804 68.7539 H 0 **** 0.053
17055 H73 45.6092 180.172 73.886 H 0 **** 0.053
17056 H74 47.0975 181.134 73.8363 H 0 **** 0.053
17057 H75 45.1697 182.521 74.6319 H 0 **** 0.053
17058 H76 45.7451 183.145 73.0831 H 0 **** 0.053
17059 H77 43.3964 181.184 73.4603 H 0 **** 0.053
17060 H78 43.2423 182.898 73.0994 H 0 **** 0.053
17061 H79 46.6552 179.82 68.1595 H 0 **** 0.1268
17062 H80 48.1866 179.786 72.1193 H 0 **** 0.1268
17063 H81 45.1357 177.938 61.8394 H 0 **** 0.053
17064 H82 45.595 179.558 61.1802 H 0 **** 0.053
17065 H83 46.5022 180.446 66.2998 H 0 **** 0.1268
17066 H84 47.415 178.033 60.9704 H 0 **** 0.1268
17067 H85 51.3464 177.699 62.5521 H 0 **** 0.1268
17068 H86 51.0343 179.546 66.9916 H 0 **** 0.1268
17069 H87 48.6828 180.266 67.2297 H 0 **** 0.1268
17070 H88 36.5134 180.311 57.7264 H 0 **** 0.41
17071 H89 34.5625 182.258 59.8124 H 0 **** 0.053
17072 H90 34.7659 182.672 61.5145 H 0 **** 0.053
17073 H91 34.2382 181.03 61.0546 H 0 **** 0.053
17074 H92 43.7063 178.959 60.5734 H 0 **** 0.41
17075 H93 49.1024 176.394 60.0355 H 0 **** 0.053
17076 H94 51.4577 176.203 59.2487 H 0 **** 0.053
17077 H95 51.3719 175.838 60.9904 H 0 **** 0.053
17078 H96 51.9804 177.426 60.4268 H 0 **** 0.053
17079 H97 48.5498 178.917 68.7581 H 0 **** 0.41
17080 H98 41.3137 182.852 70.3938 H 0 **** 0.41
17081 H99 52.3155 178.073 64.1068 H 0 **** 0.41
17082 H100 45.2043 181.598 66.8609 H 0 **** 0.053
17083 H101 42.003 183.276 68.2843 H 0 **** 0.053
17084 H102 49.7013 177.965 59.5015 H 0 **** 0.053
17085 C1 23.3691 116.142 23.295 C.ar 0 **** 0.042
17086 C2 22.938 114.836 23.1547 C.ar 0 **** -0.1268
17087 C3 23.1466 114.145 21.9723 C.ar 0 **** 0
17088 C4 23.7945 114.749 20.8934 C.ar 0 **** 0
17089 C5 24.2371 116.066 21.0498 C.ar 0 **** -0.1268
17090 C6 24.0218 116.77 22.2254 C.ar 0 **** 0
17091 C7 23.847 113.768 19.8197 C.ar 0 **** 0
17092 C8 23.249 112.608 20.2796 C.ar 0 **** 0
17093 C9 22.7456 112.732 21.6766 C.3 0 **** -0.106
17094 C10 23.175 111.489 19.4568 C.ar 0 **** 0
17095 C11 23.7062 111.52 18.1504 C.ar 0 **** 0
17096 C12 24.3003 112.741 17.729 C.ar 0 **** 0
17097 C13 24.363 113.871 18.552 C.ar 0 **** 0
17098 C14 25.004 115.138 18.0582 C.3 0 **** -0.106
17099 C15 24.8122 115.294 16.5495 C.3 0 **** -0.106
17100 C16 25.4773 114.121 15.8813 C.3 0 **** -0.106
17101 C17 24.8746 112.802 16.3147 C.ar 0 **** 0
17102 C18 24.8703 111.732 15.479 C.ar 0 **** 0
17103 C19 24.332 110.54 15.877 C.ar 0 **** 0
17104 C20 23.6494 110.368 17.2907 C.ar 0 **** 0
17105 C21 22.9606 109.199 17.8089 C.ar 0 **** 0
17106 C22 22.4943 109.252 19.1268 C.ar 0 **** 0
17107 C23 22.5772 110.334 19.9328 C.ar 0 **** 0.042
17108 C24 24.3791 109.349 14.9309 C.3 0 **** -0.106
17109 C25 25.2659 109.504 13.6609 C.ar 0 **** 0
17110 C26 25.7553 110.735 13.3 C.ar 0 **** 0
17111 C27 25.5016 111.965 14.1093 C.3 0 **** -0.106
17112 C28 26.5043 110.883 12.1345 C.ar 0 **** 0.042
17113 C29 26.7726 109.817 11.2931 C.ar 0 **** 0
17114 C30 26.2808 108.58 11.68 C.ar 0 **** 0
17115 C31 25.5343 108.409 12.8429 C.ar 0 **** 0
17116 C32 26.5205 107.32 10.8329 C.ar 0 **** 0
17117 C33 27.3364 107.567 9.55998 C.3 0 **** -0.106
17118 C34 27.1261 108.968 8.98956 C.3 0 **** -0.106
17119 C35 27.5845 109.987 10.0313 C.3 0 **** -0.106
17120 C36 25.0456 107.013 13.1715 C.ar 0 **** -0.1268
17121 C37 25.3252 105.977 12.3372 C.ar 0 **** 0.0265
17122 C38 26.0323 106.111 11.2062 C.ar 0 **** -0.1268
17123 C39 21.8364 108.032 19.655 C.3 0 **** -0.106
17124 C40 21.9193 107.209 18.4103 C.ar 0 **** 0
17125 C41 22.5595 107.867 17.3582 C.ar 0 **** 0
17126 C42 22.6207 107.15 16.1447 C.ar 0 **** -0.1268
17127 C43 22.1098 105.841 16.0243 C.ar 0 **** 0
17128 C44 21.4869 105.202 17.1171 C.ar 0 **** 0
17129 C45 21.3868 105.913 18.3236 C.ar 0 **** 0
17130 C46 20.738 105.304 19.4196 C.ar 0 **** -0.1268
17131 C47 20.1989 104.028 19.3525 C.ar 0 **** 0
17132 C48 20.3052 103.346 18.1543 C.ar 0 **** -0.1268
17133 C49 20.9378 103.899 17.0285 C.ar 0 **** 0
17134 C50 21.0392 103.21 15.8069 C.ar 0 **** 0.042
17135 C51 21.6477 103.806 14.7198 C.ar 0 **** -0.1268
17136 C52 22.1664 105.095 14.8148 C.ar 0 **** -0.1268
17137 O53 23.1677 116.827 24.4694 O.3 0 **** -0.452
17138 C54 24.5162 118.201 22.3668 C.3 0 **** -0.159
17139 O55 22.078 110.276 21.1797 O.3 0 **** -0.452
17140 C56 19.52 103.502 20.6124 C.3 0 **** -0.106
17141 C57 19.1159 102.028 20.5024 C.3 0 **** -0.159
17142 O58 24.8659 104.759 12.6678 O.3 0 **** -0.4365
17143 O59 27.013 112.094 11.7499 O.3 0 **** -0.452
17144 O60 20.5687 101.965 15.5959 O.3 0 **** -0.452
17145 H61 22.417 114.301 23.982 H 0 **** 0.1268
17146 H62 24.7813 116.62 20.273 H 0 **** 0.1268
17147 H63 21.6493 112.622 21.762 H 0 **** 0.053
17148 H64 23.2394 112.044 22.3872 H 0 **** 0.053
17149 H65 24.5653 116.017 18.5212 H 0 **** 0.053
17150 H66 26.0945 115.136 18.2777 H 0 **** 0.053
17151 H67 23.7248 115.351 16.2982 H 0 **** 0.053
17152 H68 25.2643 116.267 16.1942 H 0 **** 0.053
17153 H69 25.395 114.255 14.7956 H 0 **** 0.053
17154 H70 26.5544 114.139 16.1245 H 0 **** 0.053
17155 H71 24.7582 108.474 15.4988 H 0 **** 0.053
17156 H72 26.4634 112.458 14.2809 H 0 **** 0.053
17157 H73 28.4106 107.423 9.79472 H 0 **** 0.053
17158 H74 27.0615 106.791 8.8329 H 0 **** 0.053
17159 H75 27.7019 109.086 8.06325 H 0 **** 0.053
17160 H76 26.0683 109.124 8.73347 H 0 **** 0.053
17161 H77 28.6472 109.836 10.2651 H 0 **** 0.053
17162 H78 27.4778 110.995 9.64755 H 0 **** 0.053
17163 H79 24.4914 106.879 14.0805 H 0 **** 0.1268
17164 H80 26.244 105.269 10.5649 H 0 **** 0.1268
17165 H81 22.3947 107.558 20.4778 H 0 **** 0.053
17166 H82 20.7868 108.194 19.9481 H 0 **** 0.053
17167 H83 23.0255 107.532 15.2188 H 0 **** 0.1268
17168 H84 20.6502 105.854 20.3747 H 0 **** 0.1268
17169 H85 19.8777 102.348 18.0961 H 0 **** 0.1268
17170 H86 21.7292 103.29 13.7489 H 0 **** 0.1268
17171 H87 22.6266 105.586 13.9112 H 0 **** 0.1268
17172 H88 22.7 116.253 25.0621 H 0 **** 0.41
17173 H89 23.8433 118.787 23.0042 H 0 **** 0.053
17174 H90 24.5659 118.716 21.397 H 0 **** 0.053
17175 H91 25.5183 118.221 22.8242 H 0 **** 0.053
17176 H92 21.6992 109.424 21.3452 H 0 **** 0.41
17177 H93 20.1951 103.614 21.4671 H 0 **** 0.053
17178 H94 18.6357 101.672 21.4355 H 0 **** 0.053
17179 H95 19.9911 101.375 20.3193 H 0 **** 0.053
17180 H96 18.3874 101.863 19.6865 H 0 **** 0.053
17181 H97 24.453 104.769 13.516 H 0 **** 0.41
17182 H98 26.771 112.761 12.3713 H 0 **** 0.41
17183 H99 20.1397 101.653 16.3825 H 0 **** 0.41
17184 H100 23.3436 109.203 14.5614 H 0 **** 0.053
17185 H101 24.844 112.64 13.549 H 0 **** 0.053
17186 H102 18.6254 104.099 20.8243 H 0 **** 0.053
17187 C1 0.0921034 111.389 33.6877 C.ar 0 **** 0.042
17188 C2 0.336796 111.847 32.4063 C.ar 0 **** -0.1268
17189 C3 1.57041 111.649 31.8084 C.ar 0 **** 0
17190 C4 2.59675 110.985 32.4818 C.ar 0 **** 0
17191 C5 2.33475 110.515 33.772 C.ar 0 **** -0.1268
17192 C6 1.10715 110.719 34.3841 C.ar 0 **** 0
17193 C7 3.74549 110.95 31.5897 C.ar 0 **** 0
17194 C8 3.38084 111.574 30.4096 C.ar 0 **** 0
17195 C9 1.97905 112.079 30.4323 C.3 0 **** -0.106
17196 C10 4.29093 111.669 29.3625 C.ar 0 **** 0
17197 C11 5.58975 111.133 29.4865 C.ar 0 **** 0
17198 C12 5.91102 110.512 30.7242 C.ar 0 **** 0
17199 C13 4.99994 110.428 31.7829 C.ar 0 **** 0
17200 C14 5.38949 109.757 33.0704 C.3 0 **** -0.106
17201 C15 6.88114 109.94 33.3513 C.3 0 **** -0.106
17202 C16 7.64003 109.298 32.2218 C.3 0 **** -0.106
17203 C17 7.31489 109.931 30.8854 C.ar 0 **** 0
17204 C18 8.23366 109.956 29.8859 C.ar 0 **** 0
17205 C19 7.93342 110.521 28.6785 C.ar 0 **** 0
17206 C20 6.53917 111.212 28.4087 C.ar 0 **** 0
17207 C21 6.11736 111.928 27.2174 C.ar 0 **** 0
17208 C22 4.80022 112.397 27.1745 C.ar 0 **** 0
17209 C23 3.91011 112.294 28.186 C.ar 0 **** 0.042
17210 C24 8.97181 110.497 27.5665 C.3 0 **** -0.106
17211 C25 10.2239 109.603 27.8034 C.ar 0 **** 0
17212 C26 10.4841 109.085 29.0484 C.ar 0 **** 0
17213 C27 9.57906 109.315 30.2143 C.3 0 **** -0.106
17214 C28 11.6328 108.329 29.2733 C.ar 0 **** 0.042
17215 C29 12.5567 108.082 28.2728 C.ar 0 **** 0
17216 C30 12.2713 108.602 27.0201 C.ar 0 **** 0
17217 C31 11.127 109.356 26.7728 C.ar 0 **** 0
17218 C32 13.2169 108.388 25.8271 C.ar 0 **** 0
17219 C33 14.464 107.562 26.1576 C.3 0 **** -0.106
17220 C34 14.9206 107.739 27.604 C.3 0 **** -0.106
17221 C35 13.7995 107.262 28.5245 C.3 0 **** -0.106
17222 C36 10.9129 109.877 25.3662 C.ar 0 **** -0.1268
17223 C37 11.8283 109.62 24.3953 C.ar 0 **** 0.0265
17224 C38 12.9433 108.905 24.6037 C.ar 0 **** -0.1268
17225 C39 4.37267 113.083 25.9304 C.3 0 **** -0.106
17226 C40 5.6792 113.014 25.209 C.ar 0 **** 0
17227 C41 6.67416 112.356 25.9347 C.ar 0 **** 0
17228 C42 7.94122 112.307 25.3169 C.ar 0 **** -0.1268
17229 C43 8.16719 112.846 24.0334 C.ar 0 **** 0
17230 C44 7.13018 113.487 23.3222 C.ar 0 **** 0
17231 C45 5.87056 113.575 23.9361 C.ar 0 **** 0
17232 C46 4.82801 114.241 23.2554 C.ar 0 **** -0.1268
17233 C47 4.99822 114.807 22.0014 C.ar 0 **** 0
17234 C48 6.24718 114.712 21.416 C.ar 0 **** -0.1268
17235 C49 7.32417 114.065 22.0441 C.ar 0 **** 0
17236 C50 8.5979 113.977 21.4548 C.ar 0 **** 0.042
17237 C51 9.63195 113.35 22.1215 C.ar 0 **** -0.1268
17238 C52 9.43266 112.802 23.3858 C.ar 0 **** -0.1268
17239 O53 -1.13136 111.581 34.2839 O.3 0 **** -0.452
17240 C54 0.850827 110.193 35.7879 C.3 0 **** -0.159
17241 O55 2.67297 112.799 28.0394 O.3 0 **** -0.452
17242 C56 3.78555 115.501 21.391 C.3 0 **** -0.106
17243 C57 4.01439 115.937 19.9395 C.3 0 **** -0.159
17244 O58 11.5994 110.11 23.1658 O.3 0 **** -0.4365
17245 O59 11.9185 107.794 30.4996 O.3 0 **** -0.452
17246 O60 8.91131 114.48 20.2447 O.3 0 **** -0.452
17247 H61 -0.445174 112.381 31.8187 H 0 **** 0.1268
17248 H62 3.06257 109.954 34.3744 H 0 **** 0.1268
17249 H63 1.90423 113.178 30.3399 H 0 **** 0.053
17250 H64 1.32504 111.602 29.6791 H 0 **** 0.053
17251 H65 4.85782 110.178 33.919 H 0 **** 0.053
17252 H66 5.16874 108.668 33.0276 H 0 **** 0.053
17253 H67 7.12869 111.025 33.4529 H 0 **** 0.053
17254 H68 7.156 109.465 34.3392 H 0 **** 0.053
17255 H69 8.71159 109.374 32.4438 H 0 **** 0.053
17256 H70 7.39452 108.222 32.1962 H 0 **** 0.053
17257 H71 8.47545 110.138 26.6402 H 0 **** 0.053
17258 H72 9.3668 108.343 30.6713 H 0 **** 0.053
17259 H73 14.2391 106.492 25.9712 H 0 **** 0.053
17260 H74 15.2515 107.85 25.4478 H 0 **** 0.053
17261 H75 15.8332 107.157 27.7827 H 0 **** 0.053
17262 H76 15.165 108.792 27.8029 H 0 **** 0.053
17263 H77 13.5766 106.203 28.3324 H 0 **** 0.053
17264 H78 14.101 107.344 29.5627 H 0 **** 0.053
17265 H79 10.0175 110.436 25.171 H 0 **** 0.1268
17266 H80 13.6493 108.71 23.8121 H 0 **** 0.1268
17267 H81 3.58976 112.538 25.3801 H 0 **** 0.053
17268 H82 4.069 114.13 26.0919 H 0 **** 0.053
17269 H83 8.8327 111.89 25.7621 H 0 **** 0.1268
17270 H84 3.83181 114.319 23.7283 H 0 **** 0.1268
17271 H85 6.38612 115.16 20.4353 H 0 **** 0.1268
17272 H86 10.64 113.275 21.6816 H 0 **** 0.1268
17273 H87 10.2926 112.327 23.9368 H 0 **** 0.1268
17274 H88 -1.68558 112.049 33.6739 H 0 **** 0.41
17275 H89 0.169147 110.854 36.3353 H 0 **** 0.053
17276 H90 1.77582 110.128 36.3775 H 0 **** 0.053
17277 H91 0.391389 109.192 35.7484 H 0 **** 0.053
17278 H92 2.57586 113.194 27.184 H 0 **** 0.41
17279 H93 2.92386 114.826 21.4192 H 0 **** 0.053
17280 H94 3.11365 116.428 19.5207 H 0 **** 0.053
17281 H95 4.24793 115.076 19.2851 H 0 **** 0.053
17282 H96 4.84224 116.666 19.8568 H 0 **** 0.053
17283 H97 10.7472 110.512 23.1117 H 0 **** 0.41
17284 H98 11.2445 108.021 31.1195 H 0 **** 0.41
17285 H99 8.14619 114.897 19.8693 H 0 **** 0.41
17286 H100 9.35347 111.534 27.473 H 0 **** 0.053
17287 H101 10.0844 109.955 30.9462 H 0 **** 0.053
17288 H102 3.5277 116.383 21.9885 H 0 **** 0.053
17289 C1 29.6128 175.753 68.5705 C.ar 0 **** 0.042
17290 C2 30.7558 176.047 69.291 C.ar 0 **** -0.1268
17291 C3 31.2218 175.177 70.2631 C.ar 0 **** 0
17292 C4 30.5521 173.984 70.5402 C.ar 0 **** 0
17293 C5 29.4072 173.689 69.7941 C.ar 0 **** -0.1268
17294 C6 28.9251 174.559 68.8276 C.ar 0 **** 0
17295 C7 31.2866 173.314 71.6027 C.ar 0 **** 0
17296 C8 32.3757 174.105 71.9244 C.ar 0 **** 0
17297 C9 32.44 175.356 71.117 C.3 0 **** -0.106
17298 C10 33.2686 173.694 72.908 C.ar 0 **** 0
17299 C11 33.0796 172.472 73.5862 C.ar 0 **** 0
17300 C12 31.9395 171.705 73.2199 C.ar 0 **** 0
17301 C13 31.0334 172.125 72.2397 C.ar 0 **** 0
17302 C14 29.8451 171.275 71.8879 C.3 0 **** -0.106
17303 C15 29.3532 170.494 73.1066 C.3 0 **** -0.106
17304 C16 30.4744 169.597 73.5557 C.3 0 **** -0.106
17305 C17 31.7093 170.381 73.9462 C.ar 0 **** 0
17306 C18 32.5673 169.905 74.8848 C.ar 0 **** 0
17307 C19 33.685 170.612 75.2284 C.ar 0 **** 0
17308 C20 34.0007 172.025 74.5967 C.ar 0 **** 0
17309 C21 35.0917 172.924 74.9299 C.ar 0 **** 0
17310 C22 35.2154 174.099 74.1818 C.ar 0 **** 0
17311 C23 34.3563 174.495 73.2163 C.ar 0 **** 0.042
17312 C24 34.6466 170.032 76.2551 C.3 0 **** -0.106
17313 C25 34.4161 168.548 76.6634 C.ar 0 **** 0
17314 C26 33.2583 167.9 76.3086 C.ar 0 **** 0
17315 C27 32.1919 168.558 75.4952 C.3 0 **** -0.106
17316 C28 33.0282 166.588 76.7189 C.ar 0 **** 0.042
17317 C29 33.9338 165.894 77.5026 C.ar 0 **** 0
17318 C30 35.1017 166.56 77.8411 C.ar 0 **** 0
17319 C31 35.3536 167.869 77.4373 C.ar 0 **** 0
17320 C32 36.1868 165.892 78.7007 C.ar 0 **** 0
17321 C33 35.8535 164.458 79.1255 C.3 0 **** -0.106
17322 C34 34.353 164.227 79.2908 C.3 0 **** -0.106
17323 C35 33.677 164.473 77.9439 C.3 0 **** -0.106
17324 C36 36.663 168.501 77.8633 C.ar 0 **** -0.1268
17325 C37 37.5426 167.802 78.628 C.ar 0 **** 0.0265
17326 C38 37.3252 166.546 79.0404 C.ar 0 **** -0.1268
17327 C39 36.3639 174.982 74.5038 C.3 0 **** -0.106
17328 C40 36.918 174.178 75.635 C.ar 0 **** 0
17329 C41 36.2005 173.006 75.8802 C.ar 0 **** 0
17330 C42 36.6551 172.235 76.9704 C.ar 0 **** -0.1268
17331 C43 37.7863 172.606 77.7267 C.ar 0 **** 0
17332 C44 38.4978 173.79 77.4355 C.ar 0 **** 0
17333 C45 38.0395 174.587 76.3745 C.ar 0 **** 0
17334 C46 38.7177 175.791 76.0875 C.ar 0 **** -0.1268
17335 C47 39.8222 176.216 76.81 C.ar 0 **** 0
17336 C48 40.2552 175.418 77.8528 C.ar 0 **** -0.1268
17337 C49 39.6209 174.211 78.1883 C.ar 0 **** 0
17338 C50 40.0536 173.403 79.2555 C.ar 0 **** 0.042
17339 C51 39.3836 172.235 79.5614 C.ar 0 **** -0.1268
17340 C52 38.2694 171.842 78.8248 C.ar 0 **** -0.1268
17341 O53 29.1455 176.617 67.6082 O.3 0 **** -0.452
17342 C54 27.6787 174.208 68.0295 C.3 0 **** -0.159
17343 O55 34.5662 175.656 72.5724 O.3 0 **** -0.452
17344 C56 40.448 177.542 76.3918 C.3 0 **** -0.106
17345 C57 41.761 177.841 77.1241 C.3 0 **** -0.159
17346 O58 38.6869 168.407 78.9868 O.3 0 **** -0.4365
17347 O59 31.8889 165.912 76.3766 O.3 0 **** -0.452
17348 O60 41.1085 173.688 80.044 O.3 0 **** -0.452
17349 H61 31.3353 176.981 69.1112 H 0 **** 0.1268
17350 H62 28.8277 172.763 69.9129 H 0 **** 0.1268
17351 H63 32.3477 176.276 71.722 H 0 **** 0.053
17352 H64 33.3406 175.425 70.4794 H 0 **** 0.053
17353 H65 29.0088 171.877 71.5445 H 0 **** 0.053
17354 H66 30.1054 170.551 71.0848 H 0 **** 0.053
17355 H67 29.0329 171.195 73.916 H 0 **** 0.053
17356 H68 28.4371 169.888 72.8412 H 0 **** 0.053
17357 H69 30.1115 168.99 74.394 H 0 **** 0.053
17358 H70 30.7186 168.897 72.737 H 0 **** 0.053
17359 H71 35.6757 170.11 75.8458 H 0 **** 0.053
17360 H72 31.9422 167.889 74.665 H 0 **** 0.053
17361 H73 36.2509 163.76 78.3602 H 0 **** 0.053
17362 H74 36.3981 164.252 80.0575 H 0 **** 0.053
17363 H75 34.1671 163.2 79.6282 H 0 **** 0.053
17364 H76 33.9443 164.898 80.0596 H 0 **** 0.053
17365 H77 34.0777 163.784 77.188 H 0 **** 0.053
17366 H78 32.611 164.288 78.0161 H 0 **** 0.053
17367 H79 36.8672 169.501 77.5296 H 0 **** 0.1268
17368 H80 38.0446 166.012 79.6413 H 0 **** 0.1268
17369 H81 37.0944 175.062 73.6833 H 0 **** 0.053
17370 H82 36.061 175.984 74.8469 H 0 **** 0.053
17371 H83 36.1825 171.334 77.3333 H 0 **** 0.1268
17372 H84 38.3665 176.429 75.2554 H 0 **** 0.1268
17373 H85 41.1177 175.75 78.4249 H 0 **** 0.1268
17374 H86 39.7009 171.59 80.3974 H 0 **** 0.1268
17375 H87 37.7076 170.908 79.1072 H 0 **** 0.1268
17376 H88 29.7469 177.346 67.5536 H 0 **** 0.41
17377 H89 27.1127 175.11 67.7699 H 0 **** 0.053
17378 H90 26.9999 173.555 68.5953 H 0 **** 0.053
17379 H91 27.9499 173.698 67.0907 H 0 **** 0.053
17380 H92 35.3443 176.081 72.9061 H 0 **** 0.41
17381 H93 40.6462 177.531 75.315 H 0 **** 0.053
17382 H94 42.1963 178.804 76.7915 H 0 **** 0.053
17383 H95 42.5219 177.059 76.9355 H 0 **** 0.053
17384 H96 41.6115 177.919 78.2172 H 0 **** 0.053
17385 H97 38.7735 169.25 78.5697 H 0 **** 0.41
17386 H98 31.3271 166.463 75.8564 H 0 **** 0.41
17387 H99 41.4979 174.507 79.7656 H 0 **** 0.41
17388 H100 34.5093 170.626 77.1819 H 0 **** 0.053
17389 H101 31.302 168.709 76.117 H 0 **** 0.053
17390 H102 39.7424 178.359 76.5845 H 0 **** 0.053
17391 C1 18.0717 167.235 75.951 C.ar 0 **** 0.042
17392 C2 17.1578 167.521 74.9539 C.ar 0 **** -0.1268
17393 C3 17.5592 168.146 73.7847 C.ar 0 **** 0
17394 C4 18.8929 168.504 73.5826 C.ar 0 **** 0
17395 C5 19.8118 168.197 74.5907 C.ar 0 **** -0.1268
17396 C6 19.4178 167.583 75.7701 C.ar 0 **** 0
17397 C7 18.9762 169.138 72.2757 C.ar 0 **** 0
17398 C8 17.707 169.132 71.7241 C.ar 0 **** 0
17399 C9 16.6904 168.512 72.6201 C.3 0 **** -0.106
17400 C10 17.496 169.666 70.4576 C.ar 0 **** 0
17401 C11 18.5658 170.216 69.7207 C.ar 0 **** 0
17402 C12 19.8452 170.203 70.341 C.ar 0 **** 0
17403 C13 20.0552 169.677 71.6208 C.ar 0 **** 0
17404 C14 21.4294 169.685 72.2294 C.3 0 **** -0.106
17405 C15 22.2313 170.896 71.7538 C.3 0 **** -0.106
17406 C16 22.3645 170.797 70.2589 C.3 0 **** -0.106
17407 C17 21.0182 170.801 69.566 C.ar 0 **** 0
17408 C18 20.8843 171.298 68.3095 C.ar 0 **** 0
17409 C19 19.669 171.292 67.6844 C.ar 0 **** 0
17410 C20 18.3674 170.761 68.4041 C.ar 0 **** 0
17411 C21 17.0044 170.778 67.9026 C.ar 0 **** 0
17412 C22 16.0149 170.182 68.6918 C.ar 0 **** 0
17413 C23 16.2204 169.651 69.9173 C.ar 0 **** 0.042
17414 C24 19.561 171.82 66.2616 C.3 0 **** -0.106
17415 C25 20.9007 172.105 65.5216 C.ar 0 **** 0
17416 C26 22.0874 172.122 66.2125 C.ar 0 **** 0
17417 C27 22.1638 171.838 67.6771 C.3 0 **** -0.106
17418 C28 23.28 172.429 65.5605 C.ar 0 **** 0.042
17419 C29 23.321 172.74 64.2124 C.ar 0 **** 0
17420 C30 22.1152 172.706 63.5292 C.ar 0 **** 0
17421 C31 20.913 172.397 64.1603 C.ar 0 **** 0
17422 C32 22.0338 173.025 62.0274 C.ar 0 **** 0
17423 C33 23.3824 173.368 61.3867 C.3 0 **** -0.106
17424 C34 24.344 174.04 62.3643 C.3 0 **** -0.106
17425 C35 24.6174 173.072 63.5133 C.3 0 **** -0.106
17426 C36 19.6531 172.389 63.3183 C.ar 0 **** -0.1268
17427 C37 19.7136 172.691 61.9947 C.ar 0 **** 0.0265
17428 C38 20.8531 173.001 61.3604 C.ar 0 **** -0.1268
17429 C39 14.6371 170.165 68.1417 C.3 0 **** -0.106
17430 C40 14.9207 170.913 66.8793 C.ar 0 **** 0
17431 C41 16.2652 171.261 66.7367 C.ar 0 **** 0
17432 C42 16.5769 172.011 65.5832 C.ar 0 **** -0.1268
17433 C43 15.5997 172.341 64.6212 C.ar 0 **** 0
17434 C44 14.2536 171.953 64.7911 C.ar 0 **** 0
17435 C45 13.9187 171.235 65.9502 C.ar 0 **** 0
17436 C46 12.5713 170.867 66.1555 C.ar 0 **** -0.1268
17437 C47 11.5658 171.182 65.2544 C.ar 0 **** 0
17438 C48 11.9164 171.892 64.1211 C.ar 0 **** -0.1268
17439 C49 13.2388 172.289 63.8623 C.ar 0 **** 0
17440 C50 13.595 173.021 62.7156 C.ar 0 **** 0.042
17441 C51 14.9052 173.409 62.5161 C.ar 0 **** -0.1268
17442 C52 15.8901 173.088 63.4464 C.ar 0 **** -0.1268
17443 O53 17.6776 166.615 77.1127 O.3 0 **** -0.452
17444 C54 20.4419 167.259 76.8471 C.3 0 **** -0.159
17445 O55 15.1883 169.119 70.5949 O.3 0 **** -0.452
17446 C56 10.1554 170.726 65.6115 C.3 0 **** -0.106
17447 C57 9.1476 170.959 64.4806 C.3 0 **** -0.159
17448 O58 18.5692 172.679 61.2914 O.3 0 **** -0.4365
17449 O59 24.4806 172.446 66.2166 O.3 0 **** -0.452
17450 O60 12.7278 173.399 61.7558 O.3 0 **** -0.452
17451 H61 16.0805 167.255 75.0578 H 0 **** 0.1268
17452 H62 20.8875 168.408 74.5175 H 0 **** 0.1268
17453 H63 15.8998 169.214 72.9425 H 0 **** 0.053
17454 H64 16.224 167.603 72.1978 H 0 **** 0.053
17455 H65 21.3885 169.744 73.3135 H 0 **** 0.053
17456 H66 21.9855 168.762 71.9529 H 0 **** 0.053
17457 H67 21.7239 171.841 72.064 H 0 **** 0.053
17458 H68 23.2475 170.908 72.247 H 0 **** 0.053
17459 H69 22.9881 171.631 69.9137 H 0 **** 0.053
17460 H70 22.9092 169.868 70.0127 H 0 **** 0.053
17461 H71 18.998 171.076 65.6596 H 0 **** 0.053
17462 H72 22.9408 171.083 67.8324 H 0 **** 0.053
17463 H73 23.8408 172.433 61.004 H 0 **** 0.053
17464 H74 23.1835 174.006 60.5142 H 0 **** 0.053
17465 H75 25.2795 174.297 61.8523 H 0 **** 0.053
17466 H76 23.9138 174.979 62.7412 H 0 **** 0.053
17467 H77 25.066 172.146 63.1289 H 0 **** 0.053
17468 H78 25.3226 173.506 64.2138 H 0 **** 0.053
17469 H79 18.7315 172.125 63.8006 H 0 **** 0.1268
17470 H80 20.8738 173.23 60.3064 H 0 **** 0.1268
17471 H81 14.2672 169.151 67.9243 H 0 **** 0.053
17472 H82 13.9119 170.712 68.7658 H 0 **** 0.053
17473 H83 17.5523 172.411 65.3484 H 0 **** 0.1268
17474 H84 12.294 170.302 67.0649 H 0 **** 0.1268
17475 H85 11.13 172.146 63.4149 H 0 **** 0.1268
17476 H86 15.2065 173.989 61.628 H 0 **** 0.1268
17477 H87 16.9484 173.442 63.293 H 0 **** 0.1268
17478 H88 16.7459 166.449 77.0561 H 0 **** 0.41
17479 H89 19.9961 167.334 77.8457 H 0 **** 0.053
17480 H90 21.2946 167.952 76.8242 H 0 **** 0.053
17481 H91 20.8229 166.233 76.7232 H 0 **** 0.053
17482 H92 14.3894 169.19 70.0913 H 0 **** 0.41
17483 H93 10.1655 169.658 65.8529 H 0 **** 0.053
17484 H94 8.13603 170.608 64.7654 H 0 **** 0.053
17485 H95 9.43212 170.415 63.5597 H 0 **** 0.053
17486 H96 9.05438 172.032 64.2306 H 0 **** 0.053
17487 H97 17.8518 172.358 61.8141 H 0 **** 0.41
17488 H98 24.3571 172.241 67.129 H 0 **** 0.41
17489 H99 11.8571 173.098 61.9828 H 0 **** 0.41
17490 H100 19.0397 172.797 66.3302 H 0 **** 0.053
17491 H101 22.4389 172.755 68.211 H 0 **** 0.053
17492 H102 9.81259 171.258 66.506 H 0 **** 0.053
17493 C1 29.2842 134.915 83.4472 C.ar 0 **** 0.042
17494 C2 30.1949 133.879 83.5341 C.ar 0 **** -0.1268
17495 C3 30.4843 133.097 82.4277 C.ar 0 **** 0
17496 C4 29.8655 133.334 81.1994 C.ar 0 **** 0
17497 C5 28.9567 134.394 81.1186 C.ar 0 **** -0.1268
17498 C6 28.6507 135.174 82.2238 C.ar 0 **** 0
17499 C7 30.3787 132.348 80.2609 C.ar 0 **** 0
17500 C8 31.2937 131.56 80.9372 C.ar 0 **** 0
17501 C9 31.4472 131.951 82.367 C.3 0 **** -0.106
17502 C10 31.9577 130.536 80.2705 C.ar 0 **** 0
17503 C11 31.7122 130.29 78.9034 C.ar 0 **** 0
17504 C12 30.756 131.125 78.263 C.ar 0 **** 0
17505 C13 30.0772 132.146 78.9372 C.ar 0 **** 0
17506 C14 29.0769 133.002 78.2125 C.3 0 **** -0.106
17507 C15 28.3743 132.207 77.1114 C.3 0 **** -0.106
17508 C16 29.4247 131.756 76.1336 C.3 0 **** -0.106
17509 C17 30.466 130.87 76.7848 C.ar 0 **** 0
17510 C18 31.1119 129.914 76.0686 C.ar 0 **** 0
17511 C19 32.0565 129.122 76.6585 C.ar 0 **** 0
17512 C20 32.4 129.243 78.1953 C.ar 0 **** 0
17513 C21 33.3059 128.415 78.9717 C.ar 0 **** 0
17514 C22 33.5087 128.756 80.3134 C.ar 0 **** 0
17515 C23 32.8722 129.757 80.9605 C.ar 0 **** 0.042
17516 C24 32.7901 128.087 75.818 C.3 0 **** -0.106
17517 C25 32.5877 128.172 74.2769 C.ar 0 **** 0
17518 C26 31.6022 128.968 73.7472 C.ar 0 **** 0
17519 C27 30.7103 129.81 74.5999 C.3 0 **** -0.106
17520 C28 31.3861 129.004 72.3712 C.ar 0 **** 0.042
17521 C29 32.1322 128.24 71.4906 C.ar 0 **** 0
17522 C30 33.1297 127.45 72.0423 C.ar 0 **** 0
17523 C31 33.3656 127.404 73.414 C.ar 0 **** 0
17524 C32 34.0295 126.564 71.1658 C.ar 0 **** 0
17525 C33 33.721 126.65 69.6684 C.3 0 **** -0.106
17526 C34 32.2472 126.932 69.3867 C.3 0 **** -0.106
17527 C35 31.8919 128.284 70.0005 C.3 0 **** -0.106
17528 C36 34.4824 126.508 73.91 C.ar 0 **** -0.1268
17529 C37 35.2077 125.769 73.0297 C.ar 0 **** 0.0265
17530 C38 34.9992 125.785 71.7057 C.ar 0 **** -0.1268
17531 C39 34.4741 127.928 81.0777 C.3 0 **** -0.106
17532 C40 34.8066 126.96 79.9896 C.ar 0 **** 0
17533 C41 34.1474 127.233 78.7895 C.ar 0 **** 0
17534 C42 34.3904 126.318 77.744 C.ar 0 **** -0.1268
17535 C43 35.2771 125.231 77.8941 C.ar 0 **** 0
17536 C44 35.9414 125 79.1176 C.ar 0 **** 0
17537 C45 35.685 125.882 80.1799 C.ar 0 **** 0
17538 C46 36.3115 125.649 81.4232 C.ar 0 **** -0.1268
17539 C47 37.1722 124.583 81.6366 C.ar 0 **** 0
17540 C48 37.4121 123.727 80.577 C.ar 0 **** -0.1268
17541 C49 36.8175 123.906 79.3166 C.ar 0 **** 0
17542 C50 37.0473 123.028 78.2422 C.ar 0 **** 0.042
17543 C51 36.4188 123.23 77.0295 C.ar 0 **** -0.1268
17544 C52 35.5455 124.3 76.853 C.ar 0 **** -0.1268
17545 O53 28.995 135.694 84.5421 O.3 0 **** -0.452
17546 C54 27.6598 136.321 82.1043 C.3 0 **** -0.159
17547 O55 33.1309 129.98 82.2609 O.3 0 **** -0.452
17548 C56 37.7622 124.451 83.0367 C.3 0 **** -0.106
17549 C57 38.8194 123.353 83.1258 C.3 0 **** -0.159
17550 O58 36.1831 124.985 73.5173 O.3 0 **** -0.4365
17551 O59 30.418 129.792 71.8103 O.3 0 **** -0.452
17552 O60 37.8586 121.953 78.3001 O.3 0 **** -0.452
17553 H61 30.7229 133.646 84.4872 H 0 **** 0.1268
17554 H62 28.4402 134.683 80.1932 H 0 **** 0.1268
17555 H63 31.1412 131.16 83.0758 H 0 **** 0.053
17556 H64 32.4646 132.3 82.6231 H 0 **** 0.053
17557 H65 28.3007 133.365 78.8798 H 0 **** 0.053
17558 H66 29.5763 133.882 77.7495 H 0 **** 0.053
17559 H67 27.8173 131.343 77.549 H 0 **** 0.053
17560 H68 27.5985 132.849 76.5979 H 0 **** 0.053
17561 H69 28.9228 131.234 75.3095 H 0 **** 0.053
17562 H70 29.9103 132.647 75.6982 H 0 **** 0.053
17563 H71 33.8774 128.189 76.0185 H 0 **** 0.053
17564 H72 30.718 130.826 74.1935 H 0 **** 0.053
17565 H73 34.3416 127.454 69.2237 H 0 **** 0.053
17566 H74 34.0462 125.709 69.2076 H 0 **** 0.053
17567 H75 32.0686 126.946 68.3046 H 0 **** 0.053
17568 H76 31.6159 126.137 69.8085 H 0 **** 0.053
17569 H77 32.5139 129.075 69.5595 H 0 **** 0.053
17570 H78 30.8573 128.534 69.7933 H 0 **** 0.053
17571 H79 34.6809 126.494 74.9645 H 0 **** 0.1268
17572 H80 35.5959 125.194 71.0287 H 0 **** 0.1268
17573 H81 35.3694 128.486 81.3951 H 0 **** 0.053
17574 H82 34.0202 127.411 81.9378 H 0 **** 0.053
17575 H83 33.9195 126.346 76.7723 H 0 **** 0.1268
17576 H84 36.1198 126.335 82.2681 H 0 **** 0.1268
17577 H85 38.0854 122.89 80.7395 H 0 **** 0.1268
17578 H86 36.5796 122.553 76.1743 H 0 **** 0.1268
17579 H87 35.0096 124.435 75.8709 H 0 **** 0.1268
17580 H88 29.5116 135.381 85.272 H 0 **** 0.41
17581 H89 27.1015 136.455 83.0382 H 0 **** 0.053
17582 H90 26.9197 136.144 81.3116 H 0 **** 0.053
17583 H91 28.1848 137.265 81.8866 H 0 **** 0.053
17584 H92 33.7854 129.372 82.5754 H 0 **** 0.41
17585 H93 38.2252 125.401 83.3289 H 0 **** 0.053
17586 H94 39.267 123.301 84.1359 H 0 **** 0.053
17587 H95 39.63 123.551 82.4101 H 0 **** 0.053
17588 H96 38.4107 122.354 82.8963 H 0 **** 0.053
17589 H97 36.3012 125.124 74.4433 H 0 **** 0.41
17590 H98 29.9534 130.264 72.4818 H 0 **** 0.41
17591 H99 38.2311 121.892 79.1698 H 0 **** 0.41
17592 H100 32.3906 127.098 76.1216 H 0 **** 0.053
17593 H101 29.6892 129.413 74.5602 H 0 **** 0.053
17594 H102 36.9657 124.238 83.7581 H 0 **** 0.053
17595 C1 37.9093 123.3 50.6564 C.ar 0 **** 0.042
17596 C2 37.1441 122.346 51.3005 C.ar 0 **** -0.1268
17597 C3 37.1972 121.017 50.9125 C.ar 0 **** 0
17598 C4 38.0214 120.608 49.8633 C.ar 0 **** 0
17599 C5 38.8013 121.578 49.2275 C.ar 0 **** -0.1268
17600 C6 38.7458 122.913 49.6004 C.ar 0 **** 0
17601 C7 37.8413 119.172 49.7086 C.ar 0 **** 0
17602 C8 36.9341 118.756 50.6673 C.ar 0 **** 0
17603 C9 36.4362 119.876 51.5156 C.3 0 **** -0.106
17604 C10 36.5857 117.413 50.7598 C.ar 0 **** 0
17605 C11 37.1495 116.461 49.8849 C.ar 0 **** 0
17606 C12 38.0685 116.948 48.915 C.ar 0 **** 0
17607 C13 38.4089 118.301 48.8128 C.ar 0 **** 0
17608 C14 39.388 118.763 47.7702 C.3 0 **** -0.106
17609 C15 39.2984 117.895 46.5149 C.3 0 **** -0.106
17610 C16 39.6404 116.484 46.9103 C.3 0 **** -0.106
17611 C17 38.6857 115.937 47.9502 C.ar 0 **** 0
17612 C18 38.4179 114.607 48.017 C.ar 0 **** 0
17613 C19 37.5613 114.116 48.9619 C.ar 0 **** 0
17614 C20 36.8094 115.067 49.9749 C.ar 0 **** 0
17615 C21 35.8098 114.7 50.9629 C.ar 0 **** 0
17616 C22 35.3308 115.709 51.8062 C.ar 0 **** 0
17617 C23 35.6784 117.012 51.7266 C.ar 0 **** 0.042
17618 C24 37.3134 112.617 49.0346 C.3 0 **** -0.106
17619 C25 38.2525 111.714 48.1819 C.ar 0 **** 0
17620 C26 39.0716 112.267 47.2285 C.ar 0 **** 0
17621 C27 39.1355 113.74 46.9865 C.3 0 **** -0.106
17622 C28 39.8712 111.455 46.4271 C.ar 0 **** 0.042
17623 C29 39.8687 110.075 46.5449 C.ar 0 **** 0
17624 C30 39.0446 109.536 47.5206 C.ar 0 **** 0
17625 C31 38.2395 110.33 48.3336 C.ar 0 **** 0
17626 C32 38.9589 108.019 47.7503 C.ar 0 **** 0
17627 C33 39.855 107.193 46.8212 C.3 0 **** -0.106
17628 C34 40.0554 107.853 45.4587 C.3 0 **** -0.106
17629 C35 40.7392 109.202 45.6733 C.3 0 **** -0.106
17630 C36 37.3754 109.637 49.3675 C.ar 0 **** -0.1268
17631 C37 37.3887 108.282 49.4713 C.ar 0 **** 0.0265
17632 C38 38.1442 107.49 48.6971 C.ar 0 **** -0.1268
17633 C39 34.3463 115.306 52.8408 C.3 0 **** -0.106
17634 C40 34.2435 113.864 52.4645 C.ar 0 **** 0
17635 C41 35.0749 113.513 51.399 C.ar 0 **** 0
17636 C42 34.9791 112.172 50.973 C.ar 0 **** -0.1268
17637 C43 34.1338 111.244 51.6156 C.ar 0 **** 0
17638 C44 33.3229 111.632 52.7032 C.ar 0 **** 0
17639 C45 33.38 112.971 53.1193 C.ar 0 **** 0
17640 C46 32.5519 113.388 54.1844 C.ar 0 **** -0.1268
17641 C47 31.6869 112.524 54.839 C.ar 0 **** 0
17642 C48 31.6439 111.21 54.4117 C.ar 0 **** -0.1268
17643 C49 32.4414 110.736 53.3566 C.ar 0 **** 0
17644 C50 32.391 109.403 52.9142 C.ar 0 **** 0.042
17645 C51 33.1769 108.989 51.8566 C.ar 0 **** -0.1268
17646 C52 34.0255 109.885 51.2106 C.ar 0 **** -0.1268
17647 O53 37.8609 124.619 51.0393 O.3 0 **** -0.452
17648 C54 39.6086 123.946 48.8918 C.3 0 **** -0.159
17649 O55 35.1394 117.899 52.5804 O.3 0 **** -0.452
17650 C56 30.8474 113.117 55.9656 C.3 0 **** -0.106
17651 C57 30.0595 112.057 56.7439 C.3 0 **** -0.159
17652 O58 36.6018 107.713 50.3991 O.3 0 **** -0.4365
17653 O59 40.6996 111.973 45.4694 O.3 0 **** -0.452
17654 O60 31.6024 108.453 53.4537 O.3 0 **** -0.452
17655 H61 36.4707 122.613 52.1471 H 0 **** 0.1268
17656 H62 39.5042 121.356 48.4131 H 0 **** 0.1268
17657 H63 35.3495 120.052 51.4206 H 0 **** 0.053
17658 H64 36.6988 119.771 52.5844 H 0 **** 0.053
17659 H65 39.1908 119.784 47.4584 H 0 **** 0.053
17660 H66 40.4285 118.713 48.1605 H 0 **** 0.053
17661 H67 38.2777 117.963 46.0654 H 0 **** 0.053
17662 H68 40.0115 118.273 45.7239 H 0 **** 0.053
17663 H69 39.635 115.864 46.005 H 0 **** 0.053
17664 H70 40.6723 116.466 47.3031 H 0 **** 0.053
17665 H71 37.4185 112.302 50.0941 H 0 **** 0.053
17666 H72 40.1893 114.036 46.9977 H 0 **** 0.053
17667 H73 40.84 107.055 47.3116 H 0 **** 0.053
17668 H74 39.4026 106.197 46.7232 H 0 **** 0.053
17669 H75 40.6722 107.212 44.8174 H 0 **** 0.053
17670 H76 39.0897 107.984 44.9496 H 0 **** 0.053
17671 H77 41.7123 109.061 46.164 H 0 **** 0.053
17672 H78 40.9254 109.687 44.7216 H 0 **** 0.053
17673 H79 36.7748 110.252 50.0097 H 0 **** 0.1268
17674 H80 38.1384 106.417 48.8046 H 0 **** 0.1268
17675 H81 34.7254 115.42 53.8687 H 0 **** 0.053
17676 H82 33.3719 115.81 52.7342 H 0 **** 0.053
17677 H83 35.5046 111.751 50.1283 H 0 **** 0.1268
17678 H84 32.586 114.441 54.5194 H 0 **** 0.1268
17679 H85 30.9632 110.531 54.9184 H 0 **** 0.1268
17680 H86 33.1481 107.951 51.4868 H 0 **** 0.1268
17681 H87 34.6337 109.547 50.3242 H 0 **** 0.1268
17682 H88 37.2507 124.694 51.7606 H 0 **** 0.41
17683 H89 39.1007 124.917 48.8482 H 0 **** 0.053
17684 H90 39.8311 123.654 47.856 H 0 **** 0.053
17685 H91 40.5613 124.087 49.4268 H 0 **** 0.053
17686 H92 34.5386 117.469 53.1723 H 0 **** 0.41
17687 H93 31.498 113.65 56.6663 H 0 **** 0.053
17688 H94 29.469 112.516 57.5614 H 0 **** 0.053
17689 H95 30.729 111.308 57.2086 H 0 **** 0.053
17690 H96 29.3427 111.521 56.0944 H 0 **** 0.053
17691 H97 36.181 108.366 50.9347 H 0 **** 0.41
17692 H98 40.6396 112.914 45.4605 H 0 **** 0.41
17693 H99 31.0886 108.83 54.1559 H 0 **** 0.41
17694 H100 36.2908 112.45 48.6386 H 0 **** 0.053
17695 H101 38.7071 113.966 46.0032 H 0 **** 0.053
17696 H102 30.144 113.849 55.5537 H 0 **** 0.053
17697 C1 45.687 128.059 95.9502 C.ar 0 **** 0.042
17698 C2 45.3854 127.259 94.8642 C.ar 0 **** -0.1268
17699 C3 45.0975 127.82 93.6308 C.ar 0 **** 0
17700 C4 45.1029 129.204 93.4521 C.ar 0 **** 0
17701 C5 45.4223 130.004 94.5532 C.ar 0 **** -0.1268
17702 C6 45.6997 129.452 95.7951 C.ar 0 **** 0
17703 C7 44.7583 129.461 92.0621 C.ar 0 **** 0
17704 C8 44.5705 128.237 91.4426 C.ar 0 **** 0
17705 C9 44.7605 127.086 92.3687 C.3 0 **** -0.106
17706 C10 44.2454 128.184 90.0917 C.ar 0 **** 0
17707 C11 44.1049 129.368 89.3376 C.ar 0 **** 0
17708 C12 44.3007 130.595 90.0286 C.ar 0 **** 0
17709 C13 44.6145 130.649 91.3912 C.ar 0 **** 0
17710 C14 44.8134 131.974 92.0736 C.3 0 **** -0.106
17711 C15 43.9303 133.051 91.4434 C.3 0 **** -0.106
17712 C16 44.333 133.184 89.9999 C.3 0 **** -0.106
17713 C17 44.1452 131.891 89.2349 C.ar 0 **** 0
17714 C18 43.8704 131.904 87.9052 C.ar 0 **** 0
17715 C19 43.7092 130.734 87.2169 C.ar 0 **** 0
17716 C20 43.7813 129.33 87.9366 C.ar 0 **** 0
17717 C21 43.5407 128.021 87.3568 C.ar 0 **** 0
17718 C22 43.7343 126.903 88.1752 C.ar 0 **** 0
17719 C23 44.0638 126.952 89.4848 C.ar 0 **** 0.042
17720 C24 43.4413 130.783 85.7198 C.3 0 **** -0.106
17721 C25 43.6172 132.165 85.0259 C.ar 0 **** 0
17722 C26 43.7485 133.308 85.7752 C.ar 0 **** 0
17723 C27 43.7673 133.287 87.2687 C.3 0 **** -0.106
17724 C28 43.8524 134.551 85.1551 C.ar 0 **** 0.042
17725 C29 43.814 134.691 83.7784 C.ar 0 **** 0
17726 C30 43.6926 133.525 83.0383 C.ar 0 **** 0
17727 C31 43.5921 132.272 83.638 C.ar 0 **** 0
17728 C32 43.6466 133.55 81.5019 C.ar 0 **** 0
17729 C33 43.7502 134.954 80.8959 C.3 0 **** -0.106
17730 C34 43.151 136.03 81.7985 C.3 0 **** -0.106
17731 C35 43.9269 136.042 83.1136 C.3 0 **** -0.106
17732 C36 43.4633 131.063 82.7342 C.ar 0 **** -0.1268
17733 C37 43.4329 131.219 81.3844 C.ar 0 **** 0.0265
17734 C38 43.5181 132.411 80.7775 C.ar 0 **** -0.1268
17735 C39 43.5305 125.572 87.5523 C.3 0 **** -0.106
17736 C40 43.1159 126.05 86.1992 C.ar 0 **** 0
17737 C41 43.1221 127.442 86.0808 C.ar 0 **** 0
17738 C42 42.6909 127.945 84.8359 C.ar 0 **** -0.1268
17739 C43 42.3272 127.094 83.7721 C.ar 0 **** 0
17740 C44 42.3606 125.692 83.9225 C.ar 0 **** 0
17741 C45 42.7478 125.172 85.1682 C.ar 0 **** 0
17742 C46 42.7489 123.772 85.3531 C.ar 0 **** -0.1268
17743 C47 42.3939 122.888 84.3475 C.ar 0 **** 0
17744 C48 42.0352 123.419 83.1232 C.ar 0 **** -0.1268
17745 C49 41.9933 124.804 82.8827 C.ar 0 **** 0
17746 C50 41.5757 125.347 81.6532 C.ar 0 **** 0.042
17747 C51 41.534 126.715 81.4739 C.ar 0 **** -0.1268
17748 C52 41.8964 127.577 82.5052 C.ar 0 **** -0.1268
17749 O53 45.9754 127.508 97.1759 O.3 0 **** -0.452
17750 C54 46.0465 130.348 96.974 C.3 0 **** -0.159
17751 O55 44.2072 125.81 90.1793 O.3 0 **** -0.452
17752 C56 42.4248 121.403 84.6906 C.3 0 **** -0.106
17753 C57 42.1738 120.502 83.4757 C.3 0 **** -0.159
17754 O58 43.3104 130.118 80.6245 O.3 0 **** -0.4365
17755 O59 43.9915 135.709 85.8716 O.3 0 **** -0.452
17756 O60 41.1885 124.614 80.5902 O.3 0 **** -0.452
17757 H61 45.3679 126.148 94.9467 H 0 **** 0.1268
17758 H62 45.4839 131.1 94.5114 H 0 **** 0.1268
17759 H63 43.8469 126.481 92.5138 H 0 **** 0.053
17760 H64 45.598 126.423 92.0837 H 0 **** 0.053
17761 H65 44.5473 131.927 93.1257 H 0 **** 0.053
17762 H66 45.8748 132.298 91.9978 H 0 **** 0.053
17763 H67 42.851 132.781 91.5492 H 0 **** 0.053
17764 H68 44.0596 134.033 91.9874 H 0 **** 0.053
17765 H69 43.7442 133.995 89.5544 H 0 **** 0.053
17766 H70 45.3914 133.496 89.9546 H 0 **** 0.053
17767 H71 44.132 130.069 85.2234 H 0 **** 0.053
17768 H72 44.64 133.858 87.6019 H 0 **** 0.053
17769 H73 44.8198 135.182 80.7117 H 0 **** 0.053
17770 H74 43.256 134.929 79.9147 H 0 **** 0.053
17771 H75 43.2172 137.009 81.3083 H 0 **** 0.053
17772 H76 42.0848 135.83 81.9776 H 0 **** 0.053
17773 H77 44.9864 136.263 82.9257 H 0 **** 0.053
17774 H78 43.5474 136.817 83.7697 H 0 **** 0.053
17775 H79 43.4122 130.096 83.1971 H 0 **** 0.1268
17776 H80 43.4985 132.505 79.703 H 0 **** 0.1268
17777 H81 44.4536 124.974 87.4929 H 0 **** 0.053
17778 H82 42.7251 124.988 88.0252 H 0 **** 0.053
17779 H83 42.5786 128.992 84.5952 H 0 **** 0.1268
17780 H84 43.0504 123.352 86.3294 H 0 **** 0.1268
17781 H85 41.7417 122.728 82.3373 H 0 **** 0.1268
17782 H86 41.2112 127.162 80.5191 H 0 **** 0.1268
17783 H87 41.8311 128.692 82.3577 H 0 **** 0.1268
17784 H88 45.915 126.566 97.1014 H 0 **** 0.41
17785 H89 45.6869 129.915 97.9145 H 0 **** 0.053
17786 H90 45.587 131.343 96.8836 H 0 **** 0.053
17787 H91 47.1379 130.475 97.0559 H 0 **** 0.053
17788 H92 44.0435 125.061 89.6231 H 0 **** 0.41
17789 H93 43.4003 121.148 85.1162 H 0 **** 0.053
17790 H94 42.2209 119.431 83.7541 H 0 **** 0.053
17791 H95 42.93 120.664 82.6836 H 0 **** 0.053
17792 H96 41.1732 120.675 83.0371 H 0 **** 0.053
17793 H97 43.3496 129.335 81.1491 H 0 **** 0.41
17794 H98 43.9961 135.522 86.7964 H 0 **** 0.41
17795 H99 41.2484 123.693 80.8077 H 0 **** 0.41
17796 H100 42.3748 130.51 85.5845 H 0 **** 0.053
17797 H101 42.857 133.763 87.6505 H 0 **** 0.053
17798 H102 41.6692 121.184 85.4537 H 0 **** 0.053
17799 C1 61.9371 132.827 22.962 C.ar 0 **** 0.042
17800 C2 62.4301 132.019 21.9551 C.ar 0 **** -0.1268
17801 C3 63.7275 131.536 22.0071 C.ar 0 **** 0
17802 C4 64.5696 131.853 23.0739 C.ar 0 **** 0
17803 C5 64.0568 132.661 24.0939 C.ar 0 **** -0.1268
17804 C6 62.7634 133.159 24.0447 C.ar 0 **** 0
17805 C7 65.8463 131.202 22.8237 C.ar 0 **** 0
17806 C8 65.7369 130.505 21.6331 C.ar 0 **** 0
17807 C9 64.3956 130.65 21.0002 C.3 0 **** -0.106
17808 C10 66.8158 129.769 21.1558 C.ar 0 **** 0
17809 C11 68.0285 129.72 21.8746 C.ar 0 **** 0
17810 C12 68.0857 130.462 23.086 C.ar 0 **** 0
17811 C13 67.0049 131.214 23.5596 C.ar 0 **** 0
17812 C14 67.1169 131.979 24.8483 C.3 0 **** -0.106
17813 C15 68.5493 132.465 25.0721 C.3 0 **** -0.106
17814 C16 69.4352 131.251 25.15 C.3 0 **** -0.106
17815 C17 69.392 130.432 23.8774 C.ar 0 **** 0
17816 C18 70.4658 129.699 23.4855 C.ar 0 **** 0
17817 C19 70.4198 128.955 22.3402 C.ar 0 **** 0
17818 C20 69.1499 128.954 21.4015 C.ar 0 **** 0
17819 C21 68.9935 128.29 20.1191 C.ar 0 **** 0
17820 C22 67.7437 128.369 19.4956 C.ar 0 **** 0
17821 C23 66.6902 129.074 19.9638 C.ar 0 **** 0.042
17822 C24 71.6258 128.113 21.9505 C.3 0 **** -0.106
17823 C25 72.7452 127.964 23.0218 C.ar 0 **** 0
17824 C26 72.7493 128.761 24.1399 C.ar 0 **** 0
17825 C27 71.6811 129.771 24.4055 C.3 0 **** -0.106
17826 C28 73.7797 128.665 25.0726 C.ar 0 **** 0.042
17827 C29 74.8369 127.786 24.9108 C.ar 0 **** 0
17828 C30 74.8096 126.981 23.7822 C.ar 0 **** 0
17829 C31 73.787 127.059 22.8403 C.ar 0 **** 0
17830 C32 75.9231 125.961 23.4966 C.ar 0 **** 0
17831 C33 77.0269 125.925 24.5585 C.3 0 **** -0.106
17832 C34 77.245 127.282 25.2254 C.3 0 **** -0.106
17833 C35 75.9502 127.687 25.9261 C.3 0 **** -0.106
17834 C36 73.8559 126.133 21.6429 C.ar 0 **** -0.1268
17835 C37 74.8993 125.273 21.503 C.ar 0 **** 0.0265
17836 C38 75.9024 125.181 22.3874 C.ar 0 **** -0.1268
17837 C39 67.5882 127.645 18.21 C.3 0 **** -0.106
17838 C40 68.9886 127.136 18.1006 C.ar 0 **** 0
17839 C41 69.7917 127.498 19.1841 C.ar 0 **** 0
17840 C42 71.1373 127.082 19.1056 C.ar 0 **** -0.1268
17841 C43 71.6183 126.312 18.0261 C.ar 0 **** 0
17842 C44 70.7704 125.951 16.9579 C.ar 0 **** 0
17843 C45 69.436 126.385 17.0027 C.ar 0 **** 0
17844 C46 68.5792 126.06 15.9283 C.ar 0 **** -0.1268
17845 C47 69.0031 125.325 14.8318 C.ar 0 **** 0
17846 C48 70.3218 124.91 14.8057 C.ar 0 **** -0.1268
17847 C49 71.2227 125.204 15.843 C.ar 0 **** 0
17848 C50 72.5669 124.792 15.8126 C.ar 0 **** 0.042
17849 C51 73.4202 125.123 16.8468 C.ar 0 **** -0.1268
17850 C52 72.9666 125.871 17.9295 C.ar 0 **** -0.1268
17851 O53 60.65 133.307 22.9152 O.3 0 **** -0.452
17852 C54 62.2325 134.032 25.1711 C.3 0 **** -0.159
17853 O55 65.5401 129.096 19.2682 O.3 0 **** -0.452
17854 C56 67.9697 125.058 13.743 C.3 0 **** -0.106
17855 C57 68.4743 124.093 12.6639 C.3 0 **** -0.159
17856 O58 74.922 124.48 20.4194 O.3 0 **** -0.4365
17857 O59 73.8104 129.438 26.2008 O.3 0 **** -0.452
17858 O60 73.1197 124.077 14.8136 O.3 0 **** -0.452
17859 H61 61.803 131.729 21.0809 H 0 **** 0.1268
17860 H62 64.6254 132.942 24.9908 H 0 **** 0.1268
17861 H63 64.4241 131.15 20.0148 H 0 **** 0.053
17862 H64 63.8428 129.697 20.9121 H 0 **** 0.053
17863 H65 66.484 132.862 24.8481 H 0 **** 0.053
17864 H66 66.8216 131.341 25.7101 H 0 **** 0.053
17865 H67 68.8612 133.154 24.2494 H 0 **** 0.053
17866 H68 68.6147 133.07 26.0243 H 0 **** 0.053
17867 H69 70.4563 131.587 25.3689 H 0 **** 0.053
17868 H70 69.1131 130.632 26.0056 H 0 **** 0.053
17869 H71 71.2665 127.093 21.6987 H 0 **** 0.053
17870 H72 71.3185 129.615 25.4267 H 0 **** 0.053
17871 H73 76.7534 125.176 25.3294 H 0 **** 0.053
17872 H74 77.9438 125.563 24.0732 H 0 **** 0.053
17873 H75 78.0654 127.215 25.9506 H 0 **** 0.053
17874 H76 77.5351 128.035 24.4783 H 0 **** 0.053
17875 H77 75.6804 126.94 26.6843 H 0 **** 0.053
17876 H78 76.0777 128.634 26.4383 H 0 **** 0.053
17877 H79 73.053 126.174 20.9323 H 0 **** 0.1268
17878 H80 76.7147 124.483 22.2563 H 0 **** 0.1268
17879 H81 66.8693 126.813 18.2639 H 0 **** 0.053
17880 H82 67.3446 128.307 17.3634 H 0 **** 0.053
17881 H83 71.9049 127.324 19.8261 H 0 **** 0.1268
17882 H84 67.5263 126.396 15.9506 H 0 **** 0.1268
17883 H85 70.659 124.338 13.9454 H 0 **** 0.1268
17884 H86 74.4785 124.814 16.8419 H 0 **** 0.1268
17885 H87 73.6801 126.168 18.7491 H 0 **** 0.1268
17886 H88 60.2433 132.983 22.1232 H 0 **** 0.41
17887 H89 61.5222 134.775 24.7892 H 0 **** 0.053
17888 H90 63.0363 134.587 25.6745 H 0 **** 0.053
17889 H91 61.7089 133.419 25.9222 H 0 **** 0.053
17890 H92 65.6174 128.572 18.4831 H 0 **** 0.41
17891 H93 67.0651 124.634 14.1915 H 0 **** 0.053
17892 H94 67.6987 123.911 11.894 H 0 **** 0.053
17893 H95 68.7461 123.108 13.0896 H 0 **** 0.053
17894 H96 69.359 124.496 12.1362 H 0 **** 0.053
17895 H97 74.1203 124.552 19.9267 H 0 **** 0.41
17896 H98 73.0626 130.013 26.224 H 0 **** 0.41
17897 H99 72.4629 123.898 14.1523 H 0 **** 0.41
17898 H100 72.0991 128.625 21.0878 H 0 **** 0.053
17899 H101 72.1046 130.779 24.3224 H 0 **** 0.053
17900 H102 67.6846 126.003 13.2668 H 0 **** 0.053
17901 C1 60.9258 127.119 52.4746 C.ar 0 **** 0.042
17902 C2 60.0224 127.124 53.5211 C.ar 0 **** -0.1268
17903 C3 58.7441 126.617 53.354 C.ar 0 **** 0
17904 C4 58.3346 126.091 52.128 C.ar 0 **** 0
17905 C5 59.26 126.079 51.08 C.ar 0 **** -0.1268
17906 C6 60.538 126.595 51.2337 C.ar 0 **** 0
17907 C7 56.9553 125.655 52.2849 C.ar 0 **** 0
17908 C8 56.5785 125.914 53.5911 C.ar 0 **** 0
17909 C9 57.6643 126.549 54.3906 C.3 0 **** -0.106
17910 C10 55.3011 125.579 54.0265 C.ar 0 **** 0
17911 C11 54.3776 124.972 53.1496 C.ar 0 **** 0
17912 C12 54.8172 124.738 51.8179 C.ar 0 **** 0
17913 C13 56.0979 125.088 51.3756 C.ar 0 **** 0
17914 C14 56.5135 124.816 49.9572 C.3 0 **** -0.106
17915 C15 55.3181 124.916 49.0094 C.3 0 **** -0.106
17916 C16 54.3154 123.876 49.4285 C.3 0 **** -0.106
17917 C17 53.8316 124.09 50.8471 C.ar 0 **** 0
17918 C18 52.5859 123.702 51.223 C.ar 0 **** 0
17919 C19 52.156 123.89 52.5065 C.ar 0 **** 0
17920 C20 53.0568 124.608 53.5872 C.ar 0 **** 0
17921 C21 52.7011 124.956 54.9516 C.ar 0 **** 0
17922 C22 53.6934 125.527 55.7555 C.ar 0 **** 0
17923 C23 54.9396 125.841 55.3379 C.ar 0 **** 0.042
17924 C24 50.7689 123.408 52.9051 C.3 0 **** -0.106
17925 C25 50.0251 122.504 51.8793 C.ar 0 **** 0
17926 C26 50.4945 122.376 50.5951 C.ar 0 **** 0
17927 C27 51.7411 123.055 50.129 C.3 0 **** -0.106
17928 C28 49.8001 121.61 49.6615 C.ar 0 **** 0.042
17929 C29 48.6167 120.964 49.9759 C.ar 0 **** 0
17930 C30 48.1646 121.094 51.2799 C.ar 0 **** 0
17931 C31 48.8458 121.851 52.2296 C.ar 0 **** 0
17932 C32 46.8674 120.417 51.7511 C.ar 0 **** 0
17933 C33 46.1534 119.607 50.6648 C.3 0 **** -0.106
17934 C34 46.374 120.177 49.2655 C.3 0 **** -0.106
17935 C35 47.8693 120.136 48.9585 C.3 0 **** -0.106
17936 C36 48.2624 121.926 53.6264 C.ar 0 **** -0.1268
17937 C37 47.1023 121.281 53.918 C.ar 0 **** 0.0265
17938 C38 46.4193 120.553 53.0238 C.ar 0 **** -0.1268
17939 C39 53.3261 125.831 57.1604 C.3 0 **** -0.106
17940 C40 51.8974 125.4 57.0878 C.ar 0 **** 0
17941 C41 51.5369 124.899 55.8353 C.ar 0 **** 0
17942 C42 50.1842 124.523 55.7003 C.ar 0 **** -0.1268
17943 C43 49.2755 124.606 56.776 C.ar 0 **** 0
17944 C44 49.6829 125.1 58.0337 C.ar 0 **** 0
17945 C45 51.0179 125.51 58.1767 C.ar 0 **** 0
17946 C46 51.4376 126.038 59.4173 C.ar 0 **** -0.1268
17947 C47 50.5835 126.162 60.5024 C.ar 0 **** 0
17948 C48 49.2722 125.755 60.3395 C.ar 0 **** -0.1268
17949 C49 48.7946 125.224 59.1295 C.ar 0 **** 0
17950 C50 47.4585 124.82 58.959 C.ar 0 **** 0.042
17951 C51 47.0301 124.326 57.7429 C.ar 0 **** -0.1268
17952 C52 47.9093 124.226 56.6679 C.ar 0 **** -0.1268
17953 O53 62.1962 127.618 52.6367 O.3 0 **** -0.452
17954 C54 61.5238 126.565 50.0758 C.3 0 **** -0.159
17955 O55 55.8077 126.405 56.1959 O.3 0 **** -0.452
17956 C56 51.1737 126.756 61.7765 C.3 0 **** -0.106
17957 C57 50.2123 126.689 62.9683 C.3 0 **** -0.159
17958 O58 46.62 121.383 55.1676 O.3 0 **** -0.4365
17959 O59 50.2444 121.456 48.3763 O.3 0 **** -0.452
17960 O60 46.5173 124.882 59.9213 O.3 0 **** -0.452
17961 H61 60.2937 127.527 54.5236 H 0 **** 0.1268
17962 H62 59.0482 125.66 50.0867 H 0 **** 0.1268
17963 H63 57.4144 127.565 54.7464 H 0 **** 0.053
17964 H64 58.0012 125.933 55.2452 H 0 **** 0.053
17965 H65 57.249 125.536 49.6095 H 0 **** 0.053
17966 H66 56.9529 123.799 49.8656 H 0 **** 0.053
17967 H67 54.8834 125.945 49.0375 H 0 **** 0.053
17968 H68 55.6477 124.748 47.9418 H 0 **** 0.053
17969 H69 53.4794 123.902 48.7187 H 0 **** 0.053
17970 H70 54.7804 122.878 49.338 H 0 **** 0.053
17971 H71 50.863 122.833 53.8506 H 0 **** 0.053
17972 H72 52.3705 122.304 49.6415 H 0 **** 0.053
17973 H73 46.526 118.563 50.6995 H 0 **** 0.053
17974 H74 45.0859 119.573 50.923 H 0 **** 0.053
17975 H75 45.8171 119.586 48.5279 H 0 **** 0.053
17976 H76 45.9937 121.207 49.2071 H 0 **** 0.053
17977 H77 48.2352 119.101 48.9994 H 0 **** 0.053
17978 H78 48.0608 120.506 47.9577 H 0 **** 0.053
17979 H79 48.8025 122.489 54.3639 H 0 **** 0.1268
17980 H80 45.5042 120.044 53.2824 H 0 **** 0.1268
17981 H81 53.8823 125.229 57.8957 H 0 **** 0.053
17982 H82 53.4001 126.902 57.4084 H 0 **** 0.053
17983 H83 49.7254 124.173 54.7871 H 0 **** 0.1268
17984 H84 52.4857 126.366 59.5427 H 0 **** 0.1268
17985 H85 48.598 125.856 61.1863 H 0 **** 0.1268
17986 H86 45.9861 124.009 57.5844 H 0 **** 0.1268
17987 H87 47.54 123.857 55.6694 H 0 **** 0.1268
17988 H88 62.2786 127.928 53.5285 H 0 **** 0.41
17989 H89 62.1918 127.433 50.1081 H 0 **** 0.053
17990 H90 61.0148 126.589 49.1023 H 0 **** 0.053
17991 H91 62.1471 125.657 50.1216 H 0 **** 0.053
17992 H92 55.4051 126.521 57.0454 H 0 **** 0.41
17993 H93 52.0916 126.221 62.0402 H 0 **** 0.053
17994 H94 50.6725 127.118 63.8803 H 0 **** 0.053
17995 H95 49.9292 125.646 63.2079 H 0 **** 0.053
17996 H96 49.2854 127.262 62.7791 H 0 **** 0.053
17997 H97 47.2257 121.838 55.7307 H 0 **** 0.41
17998 H98 51.0442 121.94 48.2487 H 0 **** 0.41
17999 H99 46.899 125.241 60.7123 H 0 **** 0.41
18000 H100 50.1428 124.316 53.0178 H 0 **** 0.053
18001 H101 51.4811 123.834 49.4032 H 0 **** 0.053
18002 H102 51.4468 127.803 61.6013 H 0 **** 0.053
18003 C1 46.2375 123.887 5.26368 C.ar 0 **** 0.042
18004 C2 45.5366 122.705 5.41118 C.ar 0 **** -0.1268
18005 C3 44.1646 122.715 5.60149 C.ar 0 **** 0
18006 C4 43.4553 123.916 5.65177 C.ar 0 **** 0
18007 C5 44.172 125.106 5.49069 C.ar 0 **** -0.1268
18008 C6 45.5473 125.106 5.31197 C.ar 0 **** 0
18009 C7 42.0552 123.581 5.86408 C.ar 0 **** 0
18010 C8 41.9565 122.202 5.92095 C.ar 0 **** 0
18011 C9 43.2734 121.522 5.76609 C.3 0 **** -0.106
18012 C10 40.7162 121.6 6.10098 C.ar 0 **** 0
18013 C11 39.548 122.381 6.22605 C.ar 0 **** 0
18014 C12 39.7111 123.792 6.16896 C.ar 0 **** 0
18015 C13 40.9609 124.399 6.00108 C.ar 0 **** 0
18016 C14 41.078 125.896 5.94498 C.3 0 **** -0.106
18017 C15 40.0101 126.56 6.81473 C.3 0 **** -0.106
18018 C16 38.6652 126.159 6.2727 C.3 0 **** -0.106
18019 C17 38.4612 124.659 6.31054 C.ar 0 **** 0
18020 C18 37.218 124.13 6.44599 C.ar 0 **** 0
18021 C19 37.0373 122.776 6.47224 C.ar 0 **** 0
18022 C20 38.2556 121.773 6.40016 C.ar 0 **** 0
18023 C21 38.2234 120.325 6.50844 C.ar 0 **** 0
18024 C22 39.4285 119.635 6.34057 C.ar 0 **** 0
18025 C23 40.6329 120.218 6.1517 C.ar 0 **** 0.042
18026 C24 35.6273 122.215 6.58563 C.3 0 **** -0.106
18027 C25 34.4597 123.23 6.41462 C.ar 0 **** 0
18028 C26 34.7043 124.581 6.42671 C.ar 0 **** 0
18029 C27 36.082 125.143 6.55541 C.3 0 **** -0.106
18030 C28 33.6528 125.49 6.33621 C.ar 0 **** 0.042
18031 C29 32.335 125.081 6.22922 C.ar 0 **** 0
18032 C30 32.1085 123.714 6.20613 C.ar 0 **** 0
18033 C31 33.1444 122.788 6.30078 C.ar 0 **** 0
18034 C32 30.6881 123.137 6.09296 C.ar 0 **** 0
18035 C33 29.5871 124.198 6.00359 C.3 0 **** -0.106
18036 C34 29.9447 125.482 6.75031 C.3 0 **** -0.106
18037 C35 31.2022 126.073 6.1171 C.3 0 **** -0.106
18038 C36 32.7843 121.317 6.26988 C.ar 0 **** -0.1268
18039 C37 31.4842 120.933 6.16915 C.ar 0 **** 0.0265
18040 C38 30.4645 121.799 6.08523 C.ar 0 **** -0.1268
18041 C39 39.3681 118.154 6.4063 C.3 0 **** -0.106
18042 C40 37.9092 118.03 6.70361 C.ar 0 **** 0
18043 C41 37.2527 119.261 6.76041 C.ar 0 **** 0
18044 C42 35.8817 119.201 7.08627 C.ar 0 **** -0.1268
18045 C43 35.2166 117.974 7.29267 C.ar 0 **** 0
18046 C44 35.9106 116.749 7.20683 C.ar 0 **** 0
18047 C45 37.2836 116.791 6.91647 C.ar 0 **** 0
18048 C46 38.0036 115.578 6.85878 C.ar 0 **** -0.1268
18049 C47 37.4066 114.345 7.07326 C.ar 0 **** 0
18050 C48 36.0543 114.326 7.36078 C.ar 0 **** -0.1268
18051 C49 35.285 115.499 7.43445 C.ar 0 **** 0
18052 C50 33.912 115.482 7.73786 C.ar 0 **** 0.042
18053 C51 33.2026 116.664 7.82161 C.ar 0 **** -0.1268
18054 C52 33.8339 117.887 7.61389 C.ar 0 **** -0.1268
18055 O53 47.5974 123.882 5.06542 O.3 0 **** -0.452
18056 C54 46.2991 126.417 5.13853 C.3 0 **** -0.159
18057 O55 41.7303 119.452 6.01904 O.3 0 **** -0.452
18058 C56 38.3104 113.119 6.98691 C.3 0 **** -0.106
18059 C57 37.5352 111.799 7.05881 C.3 0 **** -0.159
18060 O58 31.2131 119.618 6.15497 O.3 0 **** -0.4365
18061 O59 33.8615 126.842 6.34596 O.3 0 **** -0.452
18062 O60 33.1991 114.363 7.97069 O.3 0 **** -0.452
18063 H61 46.0485 121.716 5.37792 H 0 **** 0.1268
18064 H62 43.7059 126.101 5.48528 H 0 **** 0.1268
18065 H63 43.577 120.941 6.65563 H 0 **** 0.053
18066 H64 43.3358 120.879 4.86906 H 0 **** 0.053
18067 H65 42.0401 126.238 6.31577 H 0 **** 0.053
18068 H66 40.9593 126.26 4.90055 H 0 **** 0.053
18069 H67 40.1334 126.257 7.88323 H 0 **** 0.053
18070 H68 40.1307 127.684 6.79566 H 0 **** 0.053
18071 H69 37.8939 126.677 6.85519 H 0 **** 0.053
18072 H70 38.579 126.523 5.2337 H 0 **** 0.053
18073 H71 35.5053 121.43 5.80984 H 0 **** 0.053
18074 H72 36.225 125.873 5.75272 H 0 **** 0.053
18075 H73 29.4073 124.433 4.93456 H 0 **** 0.053
18076 H74 28.6616 123.751 6.39189 H 0 **** 0.053
18077 H75 29.1143 126.196 6.68647 H 0 **** 0.053
18078 H76 30.1086 125.272 7.81709 H 0 **** 0.053
18079 H77 31.023 126.297 5.05658 H 0 **** 0.053
18080 H78 31.4682 127.005 6.60272 H 0 **** 0.053
18081 H79 33.5858 120.604 6.31653 H 0 **** 0.1268
18082 H80 29.4417 121.467 5.99893 H 0 **** 0.1268
18083 H81 39.6181 117.665 5.45132 H 0 **** 0.053
18084 H82 39.9719 117.728 7.22384 H 0 **** 0.053
18085 H83 35.2398 120.058 7.22906 H 0 **** 0.1268
18086 H84 39.0855 115.597 6.63276 H 0 **** 0.1268
18087 H85 35.5832 113.362 7.53491 H 0 **** 0.1268
18088 H86 32.1271 116.675 8.06382 H 0 **** 0.1268
18089 H87 33.2538 118.847 7.72205 H 0 **** 0.1268
18090 H88 47.8968 122.983 5.08953 H 0 **** 0.41
18091 H89 47.3049 126.352 5.57028 H 0 **** 0.053
18092 H90 45.7901 127.252 5.63943 H 0 **** 0.053
18093 H91 46.4056 126.666 4.07067 H 0 **** 0.053
18094 H92 41.5028 118.535 6.08535 H 0 **** 0.41
18095 H93 38.8703 113.142 6.04638 H 0 **** 0.053
18096 H94 38.2163 110.929 6.98284 H 0 **** 0.053
18097 H95 36.8013 111.71 6.23491 H 0 **** 0.053
18098 H96 36.991 111.696 8.01621 H 0 **** 0.053
18099 H97 32.0053 119.106 6.12362 H 0 **** 0.41
18100 H98 34.7837 127.032 6.40294 H 0 **** 0.41
18101 H99 33.7666 113.606 7.90128 H 0 **** 0.41
18102 H100 35.532 121.816 7.61602 H 0 **** 0.053
18103 H101 36.1791 125.649 7.52158 H 0 **** 0.053
18104 H102 39.0423 113.144 7.80231 H 0 **** 0.053
18105 C1 24.8631 113.698 52.9869 C.ar 0 **** 0.042
18106 C2 25.2492 114.141 54.2381 C.ar 0 **** -0.1268
18107 C3 24.5175 115.113 54.9004 C.ar 0 **** 0
18108 C4 23.3753 115.67 54.3235 C.ar 0 **** 0
18109 C5 22.9863 115.206 53.0635 C.ar 0 **** -0.1268
18110 C6 23.7191 114.242 52.387 C.ar 0 **** 0
18111 C7 22.8519 116.65 55.2628 C.ar 0 **** 0
18112 C8 23.6751 116.648 56.3752 C.ar 0 **** 0
18113 C9 24.8058 115.685 56.2552 C.3 0 **** -0.106
18114 C10 23.3968 117.486 57.4489 C.ar 0 **** 0
18115 C11 22.2775 118.345 57.4209 C.ar 0 **** 0
18116 C12 21.4729 118.31 56.2492 C.ar 0 **** 0
18117 C13 21.7604 117.477 55.1629 C.ar 0 **** 0
18118 C14 20.8755 117.477 53.9482 C.3 0 **** -0.106
18119 C15 20.2674 118.861 53.7166 C.3 0 **** -0.106
18120 C16 19.435 119.201 54.9228 C.3 0 **** -0.106
18121 C17 20.2599 119.237 56.1919 C.ar 0 **** 0
18122 C18 19.9119 120.048 57.224 C.ar 0 **** 0
18123 C19 20.6549 120.072 58.3707 C.ar 0 **** 0
18124 C20 21.9679 119.209 58.5282 C.ar 0 **** 0
18125 C21 22.8996 119.203 59.6423 C.ar 0 **** 0
18126 C22 23.9633 118.295 59.5939 C.ar 0 **** 0
18127 C23 24.2281 117.47 58.557 C.ar 0 **** 0.042
18128 C24 20.215 120.963 59.5237 C.3 0 **** -0.106
18129 C25 18.8002 121.602 59.4088 C.ar 0 **** 0
18130 C26 18.1151 121.567 58.2192 C.ar 0 **** 0
18131 C27 18.6611 120.894 57.0023 C.3 0 **** -0.106
18132 C28 16.872 122.185 58.1012 C.ar 0 **** 0.042
18133 C29 16.2865 122.864 59.1555 C.ar 0 **** 0
18134 C30 16.9875 122.879 60.3514 C.ar 0 **** 0
18135 C31 18.2286 122.264 60.4921 C.ar 0 **** 0
18136 C32 16.4369 123.595 61.5958 C.ar 0 **** 0
18137 C33 15.0749 124.263 61.3822 C.3 0 **** -0.106
18138 C34 14.8745 124.744 59.9467 C.3 0 **** -0.106
18139 C35 14.9392 123.532 59.0196 C.3 0 **** -0.106
18140 C36 18.9081 122.341 61.8443 C.ar 0 **** -0.1268
18141 C37 18.3153 123.008 62.8696 C.ar 0 **** 0.0265
18142 C38 17.1265 123.618 62.7634 C.ar 0 **** -0.1268
18143 C39 24.8769 118.27 60.7627 C.3 0 **** -0.106
18144 C40 24.2313 119.369 61.5412 C.ar 0 **** 0
18145 C41 23.1053 119.902 60.9104 C.ar 0 **** 0
18146 C42 22.487 120.977 61.5825 C.ar 0 **** -0.1268
18147 C43 22.9526 121.444 62.8291 C.ar 0 **** 0
18148 C44 24.083 120.866 63.445 C.ar 0 **** 0
18149 C45 24.7316 119.817 62.7741 C.ar 0 **** 0
18150 C46 25.884 119.247 63.3577 C.ar 0 **** -0.1268
18151 C47 26.3978 119.679 64.5708 C.ar 0 **** 0
18152 C48 25.7465 120.716 65.2131 C.ar 0 **** -0.1268
18153 C49 24.5973 121.325 64.6821 C.ar 0 **** 0
18154 C50 23.9393 122.386 65.3296 C.ar 0 **** 0.042
18155 C51 22.8262 122.969 64.7564 C.ar 0 **** -0.1268
18156 C52 22.342 122.521 63.5305 C.ar 0 **** -0.1268
18157 O53 25.5836 112.731 52.3275 O.3 0 **** -0.452
18158 C54 23.2693 113.755 51.0182 C.3 0 **** -0.159
18159 O55 25.2923 116.65 58.6129 O.3 0 **** -0.452
18160 C56 27.6529 118.976 65.0748 C.3 0 **** -0.106
18161 C57 28.044 119.395 66.4962 C.3 0 **** -0.159
18162 O58 18.9589 123.055 64.0476 O.3 0 **** -0.4365
18163 O59 16.1597 122.161 56.933 O.3 0 **** -0.452
18164 O60 24.3222 122.91 66.5106 O.3 0 **** -0.452
18165 H61 26.1498 113.731 54.7497 H 0 **** 0.1268
18166 H62 22.0881 115.556 52.5368 H 0 **** 0.1268
18167 H63 25.7994 116.168 56.2599 H 0 **** 0.053
18168 H64 24.7848 114.882 57.015 H 0 **** 0.053
18169 H65 21.4287 117.225 53.0482 H 0 **** 0.053
18170 H66 20.0483 116.743 54.0653 H 0 **** 0.053
18171 H67 21.072 119.616 53.5424 H 0 **** 0.053
18172 H68 19.6345 118.86 52.7804 H 0 **** 0.053
18173 H69 18.9484 120.167 54.7406 H 0 **** 0.053
18174 H70 18.6299 118.451 55.0208 H 0 **** 0.053
18175 H71 20.2334 120.356 60.4534 H 0 **** 0.053
18176 H72 17.8875 120.225 56.6128 H 0 **** 0.053
18177 H73 14.279 123.535 61.6408 H 0 **** 0.053
18178 H74 14.9949 125.091 62.0998 H 0 **** 0.053
18179 H75 13.903 125.244 59.8518 H 0 **** 0.053
18180 H76 15.6449 125.48 59.6781 H 0 **** 0.053
18181 H77 14.1529 122.812 59.2831 H 0 **** 0.053
18182 H78 14.77 123.833 57.9917 H 0 **** 0.053
18183 H79 19.8524 121.844 61.9584 H 0 **** 0.1268
18184 H80 16.6756 124.134 63.5963 H 0 **** 0.1268
18185 H81 24.8433 117.32 61.3203 H 0 **** 0.053
18186 H82 25.9175 118.528 60.5089 H 0 **** 0.053
18187 H83 21.6452 121.541 61.2084 H 0 **** 0.1268
18188 H84 26.4054 118.422 62.8392 H 0 **** 0.1268
18189 H85 26.1503 121.063 66.1612 H 0 **** 0.1268
18190 H86 22.2991 123.806 65.2422 H 0 **** 0.1268
18191 H87 21.4563 123.028 63.054 H 0 **** 0.1268
18192 H88 26.3195 112.489 52.8725 H 0 **** 0.41
18193 H89 24.1312 113.492 50.3934 H 0 **** 0.053
18194 H90 22.702 114.523 50.4745 H 0 **** 0.053
18195 H91 22.637 112.857 51.1151 H 0 **** 0.053
18196 H92 25.7543 116.766 59.4317 H 0 **** 0.41
18197 H93 27.4976 117.893 65.0619 H 0 **** 0.053
18198 H94 28.9524 118.86 66.8373 H 0 **** 0.053
18199 H95 27.2418 119.169 67.2249 H 0 **** 0.053
18200 H96 28.2695 120.476 66.5571 H 0 **** 0.053
18201 H97 19.7367 122.521 64.0334 H 0 **** 0.41
18202 H98 16.6386 121.692 56.2691 H 0 **** 0.41
18203 H99 25.1006 122.462 66.8169 H 0 **** 0.41
18204 H100 20.9289 121.811 59.5532 H 0 **** 0.053
18205 H101 18.8991 121.65 56.2451 H 0 **** 0.053
18206 H102 28.4881 119.193 64.4004 H 0 **** 0.053
18207 C1 53.8051 92.445 26.4076 C.ar 0 **** 0.042
18208 C2 53.8231 92.4114 27.7896 C.ar 0 **** -0.1268
18209 C3 53.9417 93.5799 28.5239 C.ar 0 **** 0
18210 C4 54.047 94.8187 27.8901 C.ar 0 **** 0
18211 C5 54.0141 94.8431 26.4926 C.ar 0 **** -0.1268
18212 C6 53.9084 93.6776 25.7483 C.ar 0 **** 0
18213 C7 54.161 95.8277 28.9322 C.ar 0 **** 0
18214 C8 54.1076 95.179 30.1534 C.ar 0 **** 0
18215 C9 53.969 93.7016 30.0172 C.3 0 **** -0.106
18216 C10 54.1777 95.9107 31.3339 C.ar 0 **** 0
18217 C11 54.3013 97.3155 31.304 C.ar 0 **** 0
18218 C12 54.3602 97.9265 30.0215 C.ar 0 **** 0
18219 C13 54.3033 97.1893 28.8334 C.ar 0 **** 0
18220 C14 54.3671 97.8849 27.5027 C.3 0 **** -0.106
18221 C15 55.229 99.1449 27.5861 C.3 0 **** -0.106
18222 C16 54.5898 100.069 28.5862 C.3 0 **** -0.106
18223 C17 54.503 99.4464 29.9635 C.ar 0 **** 0
18224 C18 54.5344 100.219 31.0795 C.ar 0 **** 0
18225 C19 54.4478 99.6534 32.3205 C.ar 0 **** 0
18226 C20 54.3621 98.0887 32.5156 C.ar 0 **** 0
18227 C21 54.358 97.3476 33.7645 C.ar 0 **** 0
18228 C22 54.2005 95.9592 33.6949 C.ar 0 **** 0
18229 C23 54.1195 95.2476 32.5489 C.ar 0 **** 0.042
18230 C24 54.4459 100.551 33.5493 C.3 0 **** -0.106
18231 C25 54.2914 102.079 33.2943 C.ar 0 **** 0
18232 C26 54.4156 102.589 32.0254 C.ar 0 **** 0
18233 C27 54.6634 101.72 30.8357 C.3 0 **** -0.106
18234 C28 54.3311 103.962 31.8044 C.ar 0 **** 0.042
18235 C29 54.1358 104.862 32.8381 C.ar 0 **** 0
18236 C30 54.0013 104.327 34.1103 C.ar 0 **** 0
18237 C31 54.078 102.958 34.3524 C.ar 0 **** 0
18238 C32 53.7742 105.224 35.3377 C.ar 0 **** 0
18239 C33 53.7079 106.721 35.0157 C.3 0 **** -0.106
18240 C34 54.5675 107.102 33.8121 C.3 0 **** -0.106
18241 C35 54.0457 106.348 32.5906 C.3 0 **** -0.106
18242 C36 53.9207 102.482 35.7819 C.ar 0 **** -0.1268
18243 C37 53.7287 103.38 36.7836 C.ar 0 **** 0.0265
18244 C38 53.6569 104.703 36.5841 C.ar 0 **** -0.1268
18245 C39 54.1502 95.2243 34.9827 C.3 0 **** -0.106
18246 C40 54.3614 96.3956 35.8859 C.ar 0 **** 0
18247 C41 54.4778 97.6057 35.1992 C.ar 0 **** 0
18248 C42 54.727 98.7367 36.0042 C.ar 0 **** -0.1268
18249 C43 54.8046 98.6497 37.4098 C.ar 0 **** 0
18250 C44 54.6615 97.4105 38.0694 C.ar 0 **** 0
18251 C45 54.4466 96.2685 37.2815 C.ar 0 **** 0
18252 C46 54.3343 95.014 37.9194 C.ar 0 **** -0.1268
18253 C47 54.4236 94.8659 39.2951 C.ar 0 **** 0
18254 C48 54.6392 96.0024 40.0523 C.ar 0 **** -0.1268
18255 C49 54.7619 97.2776 39.4756 C.ar 0 **** 0
18256 C50 54.9937 98.4326 40.2435 C.ar 0 **** 0.042
18257 C51 55.1298 99.6616 39.6289 C.ar 0 **** -0.1268
18258 C52 55.0473 99.7758 38.2438 C.ar 0 **** -0.1268
18259 O53 53.6856 91.2881 25.675 O.3 0 **** -0.452
18260 C54 53.8722 93.7361 24.2288 C.3 0 **** -0.159
18261 O55 53.9872 93.9108 32.6023 O.3 0 **** -0.452
18262 C56 54.2911 93.4493 39.8435 C.3 0 **** -0.106
18263 C57 54.2229 93.4051 41.3741 C.3 0 **** -0.159
18264 O58 53.6075 102.912 38.0366 O.3 0 **** -0.4365
18265 O59 54.4438 104.502 30.5519 O.3 0 **** -0.452
18266 O60 55.1067 98.4418 41.5862 O.3 0 **** -0.452
18267 H61 53.7387 91.4523 28.3507 H 0 **** 0.1268
18268 H62 54.0587 95.7666 25.8995 H 0 **** 0.1268
18269 H63 54.826 93.1383 30.4285 H 0 **** 0.053
18270 H64 53.0299 93.3044 30.4446 H 0 **** 0.053
18271 H65 54.8116 97.2522 26.7399 H 0 **** 0.053
18272 H66 53.3485 98.1753 27.1632 H 0 **** 0.053
18273 H67 56.276 98.8826 27.8751 H 0 **** 0.053
18274 H68 55.3013 99.6395 26.5727 H 0 **** 0.053
18275 H69 55.1694 101 28.6104 H 0 **** 0.053
18276 H70 53.5782 100.333 28.23 H 0 **** 0.053
18277 H71 53.6076 100.235 34.2052 H 0 **** 0.053
18278 H72 53.9283 101.984 30.0686 H 0 **** 0.053
18279 H73 52.6516 106.993 34.8156 H 0 **** 0.053
18280 H74 54.0128 107.268 35.9184 H 0 **** 0.053
18281 H75 54.5158 108.184 33.6428 H 0 **** 0.053
18282 H76 55.622 106.854 34.0005 H 0 **** 0.053
18283 H77 52.9981 106.618 32.3995 H 0 **** 0.053
18284 H78 54.6146 106.618 31.708 H 0 **** 0.053
18285 H79 53.9521 101.425 35.9637 H 0 **** 0.1268
18286 H80 53.4904 105.392 37.3975 H 0 **** 0.1268
18287 H81 53.175 94.7498 35.1751 H 0 **** 0.053
18288 H82 54.9631 94.4893 35.0975 H 0 **** 0.053
18289 H83 54.9023 99.7361 35.6337 H 0 **** 0.1268
18290 H84 54.1665 94.1067 37.3105 H 0 **** 0.1268
18291 H85 54.7154 95.89 41.1308 H 0 **** 0.1268
18292 H86 55.3166 100.58 40.2099 H 0 **** 0.1268
18293 H87 55.1983 100.777 37.7507 H 0 **** 0.1268
18294 H88 53.6279 90.5617 26.2812 H 0 **** 0.41
18295 H89 54.3481 92.8504 23.792 H 0 **** 0.053
18296 H90 54.4079 94.6126 23.8389 H 0 **** 0.053
18297 H91 52.832 93.7736 23.8677 H 0 **** 0.053
18298 H92 53.9665 93.6164 33.5023 H 0 **** 0.41
18299 H93 53.3851 92.984 39.442 H 0 **** 0.053
18300 H94 54.1159 92.3654 41.7415 H 0 **** 0.053
18301 H95 53.3579 93.9767 41.7621 H 0 **** 0.053
18302 H96 55.1406 93.8141 41.8365 H 0 **** 0.053
18303 H97 53.5496 101.97 38.048 H 0 **** 0.41
18304 H98 54.5851 103.82 29.9158 H 0 **** 0.41
18305 H99 55.0019 97.5588 41.9167 H 0 **** 0.41
18306 H100 55.4368 100.423 34.0311 H 0 **** 0.053
18307 H101 55.6718 101.911 30.4503 H 0 **** 0.053
18308 H102 55.1425 92.845 39.51 H 0 **** 0.053
18309 C1 65.9845 144.006 86.5328 C.ar 0 **** 0.042
18310 C2 67.2228 143.723 87.0786 C.ar 0 **** -0.1268
18311 C3 68.2962 143.398 86.2657 C.ar 0 **** 0
18312 C4 68.1567 143.347 84.878 C.ar 0 **** 0
18313 C5 66.9038 143.649 84.3354 C.ar 0 **** -0.1268
18314 C6 65.8199 143.962 85.1415 C.ar 0 **** 0
18315 C7 69.4516 142.977 84.3279 C.ar 0 **** 0
18316 C8 70.3315 142.83 85.3858 C.ar 0 **** 0
18317 C9 69.6909 143.076 86.7085 C.3 0 **** -0.106
18318 C10 71.6587 142.491 85.1455 C.ar 0 **** 0
18319 C11 72.1247 142.296 83.8285 C.ar 0 **** 0
18320 C12 71.1742 142.452 82.7827 C.ar 0 **** 0
18321 C13 69.8355 142.779 83.025 C.ar 0 **** 0
18322 C14 68.8714 142.934 81.8826 C.3 0 **** -0.106
18323 C15 69.2389 142.003 80.7277 C.3 0 **** -0.106
18324 C16 70.6157 142.383 80.2552 C.3 0 **** -0.106
18325 C17 71.6533 142.237 81.3481 C.ar 0 **** 0
18326 C18 72.9449 141.946 81.0462 C.ar 0 **** 0
18327 C19 73.8798 141.823 82.0352 C.ar 0 **** 0
18328 C20 73.4971 141.958 83.5615 C.ar 0 **** 0
18329 C21 74.3581 141.762 84.7146 C.ar 0 **** 0
18330 C22 73.8146 142.009 85.9798 C.ar 0 **** 0
18331 C23 72.5284 142.351 86.2146 C.ar 0 **** 0.042
18332 C24 75.3263 141.535 81.6603 C.3 0 **** -0.106
18333 C25 75.6895 141.649 80.1509 C.ar 0 **** 0
18334 C26 74.701 141.744 79.2025 C.ar 0 **** 0
18335 C27 73.2512 141.781 79.5603 C.3 0 **** -0.106
18336 C28 75.0237 141.792 77.8479 C.ar 0 **** 0.042
18337 C29 76.3329 141.732 77.4022 C.ar 0 **** 0
18338 C30 77.3175 141.648 78.3744 C.ar 0 **** 0
18339 C31 77.0169 141.603 79.7333 C.ar 0 **** 0
18340 C32 78.8082 141.583 78.0041 C.ar 0 **** 0
18341 C33 79.0808 141.624 76.497 C.3 0 **** -0.106
18342 C34 77.9564 140.993 75.6783 C.3 0 **** -0.106
18343 C35 76.6747 141.784 75.9324 C.3 0 **** -0.106
18344 C36 78.1708 141.511 80.7111 C.ar 0 **** -0.1268
18345 C37 79.45 141.458 80.2552 C.ar 0 **** 0.0265
18346 C38 79.7714 141.49 78.9543 C.ar 0 **** -0.1268
18347 C39 74.7224 141.851 87.1426 C.3 0 **** -0.106
18348 C40 75.9315 141.402 86.3883 C.ar 0 **** 0
18349 C41 75.7311 141.352 85.0074 C.ar 0 **** 0
18350 C42 76.8287 140.887 84.2532 C.ar 0 **** -0.1268
18351 C43 78.0567 140.544 84.8562 C.ar 0 **** 0
18352 C44 78.227 140.627 86.2545 C.ar 0 **** 0
18353 C45 77.1341 141.055 87.0246 C.ar 0 **** 0
18354 C46 77.2732 141.114 88.4284 C.ar 0 **** -0.1268
18355 C47 78.4493 140.769 89.0766 C.ar 0 **** 0
18356 C48 79.5124 140.346 88.3 C.ar 0 **** -0.1268
18357 C49 79.4345 140.265 86.8997 C.ar 0 **** 0
18358 C50 80.5112 139.825 86.1096 C.ar 0 **** 0.042
18359 C51 80.3791 139.74 84.7376 C.ar 0 **** -0.1268
18360 C52 79.1803 140.081 84.1173 C.ar 0 **** -0.1268
18361 O53 64.9172 144.331 87.3356 O.3 0 **** -0.452
18362 C54 64.4696 144.288 84.5218 C.3 0 **** -0.159
18363 O55 72.1106 142.546 87.4773 O.3 0 **** -0.452
18364 C56 78.4514 140.874 90.5977 C.3 0 **** -0.106
18365 C57 79.8379 140.647 91.2103 C.3 0 **** -0.159
18366 O58 80.439 141.368 81.1596 O.3 0 **** -0.4365
18367 O59 74.0637 141.893 76.878 O.3 0 **** -0.452
18368 O60 81.7114 139.456 86.5987 O.3 0 **** -0.452
18369 H61 67.3951 143.752 88.179 H 0 **** 0.1268
18370 H62 66.6968 143.667 83.2567 H 0 **** 0.1268
18371 H63 69.6845 142.189 87.3675 H 0 **** 0.053
18372 H64 70.1207 143.936 87.2549 H 0 **** 0.053
18373 H65 67.8565 142.683 82.1766 H 0 **** 0.053
18374 H66 68.8746 143.981 81.5067 H 0 **** 0.053
18375 H67 69.1942 140.936 81.058 H 0 **** 0.053
18376 H68 68.4869 142.1 79.8899 H 0 **** 0.053
18377 H69 70.8645 141.757 79.389 H 0 **** 0.053
18378 H70 70.5923 143.427 79.8982 H 0 **** 0.053
18379 H71 75.9732 142.248 82.2143 H 0 **** 0.053
18380 H72 72.7997 142.635 79.0445 H 0 **** 0.053
18381 H73 79.2114 142.682 76.1897 H 0 **** 0.053
18382 H74 80.0409 141.12 76.319 H 0 **** 0.053
18383 H75 78.2122 141.016 74.6118 H 0 **** 0.053
18384 H76 77.8244 139.938 75.9569 H 0 **** 0.053
18385 H77 76.8108 142.832 75.632 H 0 **** 0.053
18386 H78 75.859 141.382 75.3417 H 0 **** 0.053
18387 H79 77.9389 141.504 81.7588 H 0 **** 0.1268
18388 H80 80.7966 141.455 78.6203 H 0 **** 0.1268
18389 H81 74.9179 142.796 87.6734 H 0 **** 0.053
18390 H82 74.3923 141.075 87.8513 H 0 **** 0.053
18391 H83 76.8257 140.731 83.1843 H 0 **** 0.1268
18392 H84 76.4198 141.448 89.0464 H 0 **** 0.1268
18393 H85 80.4346 140.07 88.8048 H 0 **** 0.1268
18394 H86 81.2076 139.392 84.0987 H 0 **** 0.1268
18395 H87 79.0713 139.972 83.0014 H 0 **** 0.1268
18396 H88 65.2099 144.31 88.2366 H 0 **** 0.41
18397 H89 63.6508 143.957 85.1712 H 0 **** 0.053
18398 H90 64.3313 143.789 83.5527 H 0 **** 0.053
18399 H91 64.3641 145.375 84.3728 H 0 **** 0.053
18400 H92 72.8229 142.409 88.0863 H 0 **** 0.41
18401 H93 78.0971 141.865 90.8976 H 0 **** 0.053
18402 H94 79.8095 140.74 92.314 H 0 **** 0.053
18403 H95 80.5744 141.387 90.8417 H 0 **** 0.053
18404 H96 80.2244 139.635 90.9851 H 0 **** 0.053
18405 H97 80.1061 141.451 82.0388 H 0 **** 0.41
18406 H98 73.206 141.917 77.2704 H 0 **** 0.41
18407 H99 81.7055 139.54 87.5436 H 0 **** 0.41
18408 H100 75.5175 140.479 81.9392 H 0 **** 0.053
18409 H101 72.7691 140.858 79.2201 H 0 **** 0.053
18410 H102 77.755 140.139 91.0174 H 0 **** 0.053
18411 C1 29.183 109.815 78.859 C.ar 0 **** 0.042
18412 C2 28.3439 110.89 78.6325 C.ar 0 **** -0.1268
18413 C3 28.7939 112.006 77.9462 C.ar 0 **** 0
18414 C4 30.103 112.075 77.4674 C.ar 0 **** 0
18415 C5 30.9394 110.977 77.69 C.ar 0 **** -0.1268
18416 C6 30.5021 109.86 78.3869 C.ar 0 **** 0
18417 C7 30.2531 113.363 76.8074 C.ar 0 **** 0
18418 C8 29.0397 114.023 76.8923 C.ar 0 **** 0
18419 C9 28.0042 113.237 77.6204 C.3 0 **** -0.106
18420 C10 28.8917 115.283 76.3237 C.ar 0 **** 0
18421 C11 29.9683 115.902 75.6548 C.ar 0 **** 0
18422 C12 31.1927 115.181 75.6066 C.ar 0 **** 0
18423 C13 31.3459 113.919 76.1904 C.ar 0 **** 0
18424 C14 32.6618 113.197 76.1087 C.3 0 **** -0.106
18425 C15 33.8271 114.187 76.0981 C.3 0 **** -0.106
18426 C16 33.6751 115.058 74.8806 C.3 0 **** -0.106
18427 C17 32.3759 115.835 74.895 C.ar 0 **** 0
18428 C18 32.2823 117.044 74.2843 C.ar 0 **** 0
18429 C19 31.1056 117.739 74.2932 C.ar 0 **** 0
18430 C20 29.8286 117.2 75.0501 C.ar 0 **** 0
18431 C21 28.5494 117.866 75.2211 C.ar 0 **** 0
18432 C22 27.5319 117.16 75.8719 C.ar 0 **** 0
18433 C23 27.6699 115.93 76.4138 C.ar 0 **** 0.042
18434 C24 31.0234 119.073 73.5657 C.3 0 **** -0.106
18435 C25 32.2245 119.439 72.6456 C.ar 0 **** 0
18436 C26 33.3906 118.716 72.7029 C.ar 0 **** 0
18437 C27 33.5573 117.539 73.6067 C.3 0 **** -0.106
18438 C28 34.4838 119.075 71.9173 C.ar 0 **** 0.042
18439 C29 34.4512 120.168 71.069 C.ar 0 **** 0
18440 C30 33.2622 120.88 71.0161 C.ar 0 **** 0
18441 C31 32.1561 120.534 71.7884 C.ar 0 **** 0
18442 C32 33.1009 122.107 70.1055 C.ar 0 **** 0
18443 C33 34.3497 122.444 69.2859 C.3 0 **** -0.106
18444 C34 35.6432 122.063 70.001 C.3 0 **** -0.106
18445 C35 35.6408 120.552 70.2217 C.3 0 **** -0.106
18446 C36 30.9052 121.379 71.6503 C.ar 0 **** -0.1268
18447 C37 30.8895 122.444 70.8062 C.ar 0 **** 0.0265
18448 C38 31.9409 122.808 70.0589 C.ar 0 **** -0.1268
18449 C39 26.2178 117.838 75.9945 C.3 0 **** -0.106
18450 C40 26.6022 119.13 75.3507 C.ar 0 **** 0
18451 C41 27.9258 119.151 74.9068 C.ar 0 **** 0
18452 C42 28.353 120.368 74.3344 C.ar 0 **** -0.1268
18453 C43 27.4824 121.467 74.1816 C.ar 0 **** 0
18454 C44 26.1444 121.4 74.625 C.ar 0 **** 0
18455 C45 25.7113 120.208 75.2281 C.ar 0 **** 0
18456 C46 24.3858 120.132 75.7086 C.ar 0 **** -0.1268
18457 C47 23.4928 121.188 75.6042 C.ar 0 **** 0
18458 C48 23.9403 122.353 75.0101 C.ar 0 **** -0.1268
18459 C49 25.2479 122.491 74.515 C.ar 0 **** 0
18460 C50 25.7079 123.679 73.921 C.ar 0 **** 0.042
18461 C51 27.0096 123.774 73.4695 C.ar 0 **** -0.1268
18462 C52 27.8863 122.7 73.6005 C.ar 0 **** -0.1268
18463 O53 28.74 108.704 79.5372 O.3 0 **** -0.452
18464 C54 31.4346 108.68 78.6111 C.3 0 **** -0.159
18465 O55 26.6255 115.353 77.0335 O.3 0 **** -0.452
18466 C56 22.0963 120.965 76.1747 C.3 0 **** -0.106
18467 C57 21.1305 122.112 75.856 C.3 0 **** -0.159
18468 O58 29.758 123.162 70.7172 O.3 0 **** -0.4365
18469 O59 35.6565 118.37 71.9429 O.3 0 **** -0.452
18470 O60 24.9563 124.785 73.7532 O.3 0 **** -0.452
18471 H61 27.2879 110.89 78.9878 H 0 **** 0.1268
18472 H62 31.975 110.918 77.3285 H 0 **** 0.1268
18473 H63 27.6553 113.721 78.5504 H 0 **** 0.053
18474 H64 27.1315 112.97 76.9963 H 0 **** 0.053
18475 H65 32.8149 112.543 76.9623 H 0 **** 0.053
18476 H66 32.7138 112.58 75.1846 H 0 **** 0.053
18477 H67 33.8357 114.789 77.0392 H 0 **** 0.053
18478 H68 34.8122 113.634 76.0745 H 0 **** 0.053
18479 H69 34.5382 115.733 74.8335 H 0 **** 0.053
18480 H70 33.7198 114.419 73.9805 H 0 **** 0.053
18481 H71 30.1094 119.065 72.9354 H 0 **** 0.053
18482 H72 33.9439 116.708 73.0083 H 0 **** 0.053
18483 H73 34.2931 121.911 68.3157 H 0 **** 0.053
18484 H74 34.3177 123.517 69.0591 H 0 **** 0.053
18485 H75 36.5081 122.358 69.394 H 0 **** 0.053
18486 H76 35.7246 122.595 70.9595 H 0 **** 0.053
18487 H77 35.5793 120.029 69.2576 H 0 **** 0.053
18488 H78 36.5614 120.238 70.7013 H 0 **** 0.053
18489 H79 30.0454 121.096 72.2267 H 0 **** 0.1268
18490 H80 31.8995 123.655 69.3928 H 0 **** 0.1268
18491 H81 25.4163 117.339 75.4276 H 0 **** 0.053
18492 H82 25.9054 117.998 77.0389 H 0 **** 0.053
18493 H83 29.3573 120.575 73.9949 H 0 **** 0.1268
18494 H84 24.0325 119.2 76.1868 H 0 **** 0.1268
18495 H85 23.2447 123.185 74.931 H 0 **** 0.1268
18496 H86 27.3939 124.698 73.0062 H 0 **** 0.1268
18497 H87 28.9568 122.802 73.2643 H 0 **** 0.1268
18498 H88 27.8354 108.849 79.7797 H 0 **** 0.41
18499 H89 31.2224 108.19 79.5686 H 0 **** 0.053
18500 H90 32.489 108.988 78.6362 H 0 **** 0.053
18501 H91 31.3092 107.931 77.8132 H 0 **** 0.053
18502 H92 25.8706 115.925 77.0111 H 0 **** 0.41
18503 H93 21.6786 120.037 75.7706 H 0 **** 0.053
18504 H94 20.123 121.917 76.2735 H 0 **** 0.053
18505 H95 21.0074 122.253 74.7649 H 0 **** 0.053
18506 H96 21.4751 123.07 76.289 H 0 **** 0.053
18507 H97 29.0687 122.779 71.2351 H 0 **** 0.41
18508 H98 35.5958 117.66 72.5604 H 0 **** 0.41
18509 H99 24.0854 124.63 74.0964 H 0 **** 0.41
18510 H100 30.9945 119.856 74.351 H 0 **** 0.053
18511 H101 34.28 117.784 74.3936 H 0 **** 0.053
18512 H102 22.1583 120.847 77.2626 H 0 **** 0.053
18513 C1 22.6904 177.128 53.4435 C.ar 0 **** 0.042
18514 C2 21.4844 177.087 52.769 C.ar 0 **** -0.1268
18515 C3 21.4496 176.997 51.3873 C.ar 0 **** 0
18516 C4 22.6278 176.948 50.6408 C.ar 0 **** 0
18517 C5 23.8423 176.975 51.3335 C.ar 0 **** -0.1268
18518 C6 23.8875 177.077 52.716 C.ar 0 **** 0
18519 C7 22.2458 176.87 49.2388 C.ar 0 **** 0
18520 C8 20.8638 176.849 49.179 C.ar 0 **** 0
18521 C9 20.2268 176.937 50.5234 C.3 0 **** -0.106
18522 C10 20.2225 176.755 47.9485 C.ar 0 **** 0
18523 C11 20.9667 176.671 46.7527 C.ar 0 **** 0
18524 C12 22.3828 176.704 46.8757 C.ar 0 **** 0
18525 C13 23.0257 176.824 48.1119 C.ar 0 **** 0
18526 C14 24.5201 176.861 48.1879 C.3 0 **** -0.106
18527 C15 25.1311 177.498 46.9435 C.3 0 **** -0.106
18528 C16 24.7172 176.674 45.7526 C.3 0 **** -0.106
18529 C17 23.2119 176.618 45.5948 C.ar 0 **** 0
18530 C18 22.6458 176.482 44.3679 C.ar 0 **** 0
18531 C19 21.2872 176.424 44.2312 C.ar 0 **** 0
18532 C20 20.3199 176.561 45.4723 C.ar 0 **** 0
18533 C21 18.8686 176.611 45.4686 C.ar 0 **** 0
18534 C22 18.2176 176.664 46.7059 C.ar 0 **** 0
18535 C23 18.8386 176.742 47.9035 C.ar 0 **** 0.042
18536 C24 20.6858 176.233 42.8472 C.3 0 **** -0.106
18537 C25 21.6758 175.866 41.7039 C.ar 0 **** 0
18538 C26 23.0316 175.97 41.8958 C.ar 0 **** 0
18539 C27 23.6232 176.398 43.1988 C.3 0 **** -0.106
18540 C28 23.9161 175.693 40.8555 C.ar 0 **** 0.042
18541 C29 23.4761 175.321 39.5971 C.ar 0 **** 0
18542 C30 22.1045 175.211 39.4259 C.ar 0 **** 0
18543 C31 21.2036 175.477 40.4534 C.ar 0 **** 0
18544 C32 21.4947 174.8 38.077 C.ar 0 **** 0
18545 C33 22.529 174.533 36.9837 C.3 0 **** -0.106
18546 C34 23.7917 175.376 37.1378 C.3 0 **** -0.106
18547 C35 24.4411 175.023 38.474 C.3 0 **** -0.106
18548 C36 19.7255 175.323 40.1564 C.ar 0 **** -0.1268
18549 C37 19.3125 174.95 38.9163 C.ar 0 **** 0.0265
18550 C38 20.1537 174.696 37.9045 C.ar 0 **** -0.1268
18551 C39 16.7345 176.665 46.6842 C.3 0 **** -0.106
18552 C40 16.56 176.659 45.2004 C.ar 0 **** 0
18553 C41 17.7697 176.626 44.5042 C.ar 0 **** 0
18554 C42 17.6608 176.668 43.0987 C.ar 0 **** -0.1268
18555 C43 16.4098 176.694 42.4478 C.ar 0 **** 0
18556 C44 15.2075 176.706 43.1864 C.ar 0 **** 0
18557 C45 15.2976 176.698 44.5875 C.ar 0 **** 0
18558 C46 14.1072 176.743 45.3454 C.ar 0 **** -0.1268
18559 C47 12.8513 176.79 44.7598 C.ar 0 **** 0
18560 C48 12.7848 176.8 43.3788 C.ar 0 **** -0.1268
18561 C49 13.9333 176.76 42.5708 C.ar 0 **** 0
18562 C50 13.8676 176.781 41.1662 C.ar 0 **** 0.042
18563 C51 15.0259 176.762 40.4145 C.ar 0 **** -0.1268
18564 C52 16.273 176.728 41.0326 C.ar 0 **** -0.1268
18565 O53 22.7287 177.216 54.8146 O.3 0 **** -0.452
18566 C54 25.2235 177.103 53.4425 C.3 0 **** -0.159
18567 O55 18.1094 176.808 49.0306 O.3 0 **** -0.452
18568 C56 11.655 176.844 45.7036 C.3 0 **** -0.106
18569 C57 10.3129 176.713 44.9751 C.3 0 **** -0.159
18570 O58 17.9923 174.834 38.6983 O.3 0 **** -0.4365
18571 O59 25.2723 175.78 41.0146 O.3 0 **** -0.452
18572 O60 12.7209 176.827 40.4601 O.3 0 **** -0.452
18573 H61 20.5115 177.12 53.3109 H 0 **** 0.1268
18574 H62 24.8236 176.905 50.8438 H 0 **** 0.1268
18575 H63 19.6186 177.849 50.663 H 0 **** 0.053
18576 H64 19.6233 176.049 50.7851 H 0 **** 0.053
18577 H65 24.8753 177.42 49.0461 H 0 **** 0.053
18578 H66 24.8999 175.83 48.2731 H 0 **** 0.053
18579 H67 24.7923 178.558 46.8506 H 0 **** 0.053
18580 H68 26.2572 177.537 47.0306 H 0 **** 0.053
18581 H69 25.1903 177.105 44.8609 H 0 **** 0.053
18582 H70 25.1191 175.652 45.8638 H 0 **** 0.053
18583 H71 19.9304 175.422 42.9091 H 0 **** 0.053
18584 H72 24.3905 175.668 43.4753 H 0 **** 0.053
18585 H73 22.8027 173.462 37.0251 H 0 **** 0.053
18586 H74 22.0395 174.707 36.0163 H 0 **** 0.053
18587 H75 24.4838 175.168 36.3124 H 0 **** 0.053
18588 H76 23.5461 176.446 37.0936 H 0 **** 0.053
18589 H77 24.7036 173.957 38.4989 H 0 **** 0.053
18590 H78 25.3593 175.584 38.6084 H 0 **** 0.053
18591 H79 19.0335 175.504 40.9564 H 0 **** 0.1268
18592 H80 19.799 174.394 36.9317 H 0 **** 0.1268
18593 H81 16.2929 175.763 47.1362 H 0 **** 0.053
18594 H82 16.2921 177.571 47.1275 H 0 **** 0.053
18595 H83 18.4942 176.71 42.4129 H 0 **** 0.1268
18596 H84 14.1645 176.739 46.4494 H 0 **** 0.1268
18597 H85 11.8022 176.842 42.9159 H 0 **** 0.1268
18598 H86 14.9986 176.784 39.3127 H 0 **** 0.1268
18599 H87 17.2119 176.752 40.4108 H 0 **** 0.1268
18600 H88 21.8364 177.237 55.133 H 0 **** 0.41
18601 H89 25.1669 177.724 54.344 H 0 **** 0.053
18602 H90 26.0238 177.52 52.8158 H 0 **** 0.053
18603 H91 25.5158 176.086 53.7505 H 0 **** 0.053
18604 H92 17.1847 176.788 48.8278 H 0 **** 0.41
18605 H93 11.7315 176.036 46.4388 H 0 **** 0.053
18606 H94 9.46468 176.744 45.6871 H 0 **** 0.053
18607 H95 10.238 175.756 44.4238 H 0 **** 0.053
18608 H96 10.1559 177.537 44.2551 H 0 **** 0.053
18609 H97 17.5029 174.946 39.4978 H 0 **** 0.41
18610 H98 25.4811 176.05 41.8943 H 0 **** 0.41
18611 H99 11.9841 176.845 41.0575 H 0 **** 0.41
18612 H100 20.242 177.209 42.5623 H 0 **** 0.053
18613 H101 24.0878 177.384 43.0806 H 0 **** 0.053
18614 H102 11.6659 177.79 46.2572 H 0 **** 0.053
18615 C1 28.8087 183.974 29.552 C.ar 0 **** 0.042
18616 C2 28.2717 182.865 30.1789 C.ar 0 **** -0.1268
18617 C3 28.1937 181.65 29.5191 C.ar 0 **** 0
18618 C4 28.649 181.514 28.2067 C.ar 0 **** 0
18619 C5 29.1983 182.639 27.585 C.ar 0 **** -0.1268
18620 C6 29.2719 183.861 28.2343 C.ar 0 **** 0
18621 C7 28.4238 180.132 27.8128 C.ar 0 **** 0
18622 C8 27.8576 179.475 28.891 C.ar 0 **** 0
18623 C9 27.6535 180.365 30.0683 C.3 0 **** -0.106
18624 C10 27.5491 178.122 28.7974 C.ar 0 **** 0
18625 C11 27.8089 177.405 27.6107 C.ar 0 **** 0
18626 C12 28.3833 178.134 26.5336 C.ar 0 **** 0
18627 C13 28.6816 179.498 26.6228 C.ar 0 **** 0
18628 C14 29.2909 180.222 25.455 C.3 0 **** -0.106
18629 C15 28.8117 179.624 24.1322 C.3 0 **** -0.106
18630 C16 29.2527 178.186 24.0952 C.3 0 **** -0.106
18631 C17 28.6654 177.381 25.235 C.ar 0 **** 0
18632 C18 28.4251 176.052 25.0957 C.ar 0 **** 0
18633 C19 27.9022 175.327 26.1296 C.ar 0 **** 0
18634 C20 27.5074 176.003 27.5012 C.ar 0 **** 0
18635 C21 26.8634 175.383 28.6454 C.ar 0 **** 0
18636 C22 26.6747 176.166 29.7889 C.ar 0 **** 0
18637 C23 26.9855 177.477 29.8862 C.ar 0 **** 0.042
18638 C24 27.6822 173.832 25.9539 C.3 0 **** -0.106
18639 C25 28.3042 173.181 24.6838 C.ar 0 **** 0
18640 C26 28.7897 173.966 23.6668 C.ar 0 **** 0
18641 C27 28.7831 175.458 23.736 C.3 0 **** -0.106
18642 C28 29.2977 173.385 22.5069 C.ar 0 **** 0.042
18643 C29 29.3226 172.013 22.3228 C.ar 0 **** 0
18644 C30 28.8391 171.237 23.3648 C.ar 0 **** 0
18645 C31 28.3315 171.797 24.5341 C.ar 0 **** 0
18646 C32 28.8217 169.702 23.2817 C.ar 0 **** 0
18647 C33 29.3811 169.14 21.9708 C.3 0 **** -0.106
18648 C34 29.152 170.075 20.7849 C.3 0 **** -0.106
18649 C35 29.8746 171.391 21.0627 C.3 0 **** -0.106
18650 C36 27.8286 170.856 25.61 C.ar 0 **** -0.1268
18651 C37 27.866 169.512 25.4137 C.ar 0 **** 0.0265
18652 C38 28.3397 168.942 24.2965 C.ar 0 **** -0.1268
18653 C39 26.0591 175.502 30.9641 C.3 0 **** -0.106
18654 C40 25.8375 174.164 30.3386 C.ar 0 **** 0
18655 C41 26.2953 174.09 29.0214 C.ar 0 **** 0
18656 C42 26.0661 172.861 28.3686 C.ar 0 **** -0.1268
18657 C43 25.4571 171.771 29.0241 C.ar 0 **** 0
18658 C44 25.0255 171.877 30.3635 C.ar 0 **** 0
18659 C45 25.2156 173.104 31.0189 C.ar 0 **** 0
18660 C46 24.763 173.243 32.3492 C.ar 0 **** -0.1268
18661 C47 24.1418 172.21 33.0346 C.ar 0 **** 0
18662 C48 23.9596 171.012 32.3689 C.ar 0 **** -0.1268
18663 C49 24.3892 170.814 31.0472 C.ar 0 **** 0
18664 C50 24.2071 169.599 30.3645 C.ar 0 **** 0.042
18665 C51 24.6178 169.461 29.0545 C.ar 0 **** -0.1268
18666 C52 25.2236 170.521 28.3875 C.ar 0 **** -0.1268
18667 O53 28.9019 185.179 30.2053 O.3 0 **** -0.452
18668 C54 29.8768 185.066 27.5362 C.3 0 **** -0.159
18669 O55 26.7418 178.137 31.0319 O.3 0 **** -0.452
18670 C56 23.696 172.503 34.4623 C.3 0 **** -0.106
18671 C57 23.1839 171.257 35.1958 C.3 0 **** -0.159
18672 O58 27.4018 168.718 26.3926 O.3 0 **** -0.4365
18673 O59 29.7955 174.137 21.4781 O.3 0 **** -0.452
18674 O60 23.6385 168.504 30.895 O.3 0 **** -0.452
18675 H61 27.8967 182.913 31.2268 H 0 **** 0.1268
18676 H62 29.6126 182.631 26.5678 H 0 **** 0.1268
18677 H63 26.5921 180.489 30.3494 H 0 **** 0.053
18678 H64 28.2356 180.062 30.9581 H 0 **** 0.053
18679 H65 29.0117 181.271 25.4428 H 0 **** 0.053
18680 H66 30.4009 180.158 25.4903 H 0 **** 0.053
18681 H67 27.7022 179.719 24.0405 H 0 **** 0.053
18682 H68 29.2456 180.198 23.2612 H 0 **** 0.053
18683 H69 28.9635 177.765 23.1246 H 0 **** 0.053
18684 H70 30.3555 178.152 24.142 H 0 **** 0.053
18685 H71 28.1105 173.315 26.8381 H 0 **** 0.053
18686 H72 29.7896 175.81 23.4886 H 0 **** 0.053
18687 H73 30.4691 168.965 22.0964 H 0 **** 0.053
18688 H74 28.9172 168.158 21.8056 H 0 **** 0.053
18689 H75 29.5373 169.615 19.8663 H 0 **** 0.053
18690 H76 28.0765 170.246 20.6337 H 0 **** 0.053
18691 H77 30.9506 171.212 21.1919 H 0 **** 0.053
18692 H78 29.7589 172.07 20.2255 H 0 **** 0.053
18693 H79 27.4621 171.289 26.5211 H 0 **** 0.1268
18694 H80 28.3644 167.871 24.1704 H 0 **** 0.1268
18695 H81 26.7392 175.425 31.8269 H 0 **** 0.053
18696 H82 25.1019 175.954 31.2696 H 0 **** 0.053
18697 H83 26.3012 172.651 27.3353 H 0 **** 0.1268
18698 H84 24.9046 174.204 32.8767 H 0 **** 0.1268
18699 H85 23.4646 170.207 32.9031 H 0 **** 0.1268
18700 H86 24.4702 168.519 28.5029 H 0 **** 0.1268
18701 H87 25.5251 170.408 27.3087 H 0 **** 0.1268
18702 H88 28.5187 185.08 31.0655 H 0 **** 0.41
18703 H89 29.3819 185.983 27.8704 H 0 **** 0.053
18704 H90 29.7601 185.012 26.445 H 0 **** 0.053
18705 H91 30.9491 185.157 27.77 H 0 **** 0.053
18706 H92 26.3567 177.555 31.6728 H 0 **** 0.41
18707 H93 24.5327 172.924 35.0297 H 0 **** 0.053
18708 H94 22.8776 171.49 36.2336 H 0 **** 0.053
18709 H95 23.962 170.474 35.2622 H 0 **** 0.053
18710 H96 22.2973 170.826 34.6967 H 0 **** 0.053
18711 H97 27.1817 169.218 27.1625 H 0 **** 0.41
18712 H98 29.7279 175.056 21.6843 H 0 **** 0.41
18713 H99 23.3455 168.694 31.7773 H 0 **** 0.41
18714 H100 26.5864 173.686 25.8628 H 0 **** 0.053
18715 H101 28.0714 175.853 23.0016 H 0 **** 0.053
18716 H102 22.9019 173.257 34.4436 H 0 **** 0.053
18717 C1 52.7982 166.876 50.6606 C.ar 0 **** 0.042
18718 C2 52.0598 167.965 51.0852 C.ar 0 **** -0.1268
18719 C3 52.679 169.047 51.6885 C.ar 0 **** 0
18720 C4 54.0606 169.067 51.8844 C.ar 0 **** 0
18721 C5 54.7997 167.966 51.4395 C.ar 0 **** -0.1268
18722 C6 54.1877 166.873 50.8458 C.ar 0 **** 0
18723 C7 54.3854 170.325 52.5384 C.ar 0 **** 0
18724 C8 53.2057 171.029 52.705 C.ar 0 **** 0
18725 C9 52.0162 170.293 52.1912 C.3 0 **** -0.106
18726 C10 53.2238 172.288 53.2957 C.ar 0 **** 0
18727 C11 54.4373 172.862 53.7285 C.ar 0 **** 0
18728 C12 55.6158 172.09 53.5396 C.ar 0 **** 0
18729 C13 55.5961 170.817 52.9579 C.ar 0 **** 0
18730 C14 56.8716 170.043 52.779 C.3 0 **** -0.106
18731 C15 57.8663 170.363 53.8949 C.3 0 **** -0.106
18732 C16 58.1774 171.833 53.8201 C.3 0 **** -0.106
18733 C17 56.9414 172.687 54.0087 C.ar 0 **** 0
18734 C18 57.0301 173.928 54.5538 C.ar 0 **** 0
18735 C19 55.913 174.698 54.7152 C.ar 0 **** 0
18736 C20 54.476 174.169 54.3296 C.ar 0 **** 0
18737 C21 53.2006 174.833 54.5291 C.ar 0 **** 0
18738 C22 52.0535 174.2 54.0391 C.ar 0 **** 0
18739 C23 52.035 172.982 53.4532 C.ar 0 **** 0.042
18740 C24 56.0525 176.099 55.2924 C.3 0 **** -0.106
18741 C25 57.5003 176.654 55.4295 C.ar 0 **** 0
18742 C26 58.582 175.822 55.2813 C.ar 0 **** 0
18743 C27 58.4353 174.373 54.9497 C.3 0 **** -0.106
18744 C28 59.8763 176.307 55.4564 C.ar 0 **** 0.042
18745 C29 60.127 177.625 55.7969 C.ar 0 **** 0
18746 C30 59.0235 178.453 55.9308 C.ar 0 **** 0
18747 C31 57.7221 177.99 55.7553 C.ar 0 **** 0
18748 C32 59.1741 179.938 56.2982 C.ar 0 **** 0
18749 C33 60.625 180.391 56.4897 C.3 0 **** -0.106
18750 C34 61.5262 179.274 57.0111 C.3 0 **** -0.106
18751 C35 61.5327 178.143 55.9855 C.3 0 **** -0.106
18752 C36 56.5887 178.981 55.9259 C.ar 0 **** -0.1268
18753 C37 56.8543 180.272 56.2553 C.ar 0 **** 0.0265
18754 C38 58.0944 180.747 56.4393 C.ar 0 **** -0.1268
18755 C39 50.7658 174.916 54.2093 C.3 0 **** -0.106
18756 C40 51.2984 176.099 54.952 C.ar 0 **** 0
18757 C41 52.6819 176.059 55.1335 C.ar 0 **** 0
18758 C42 53.2262 177.132 55.8705 C.ar 0 **** -0.1268
18759 C43 52.429 178.193 56.3472 C.ar 0 **** 0
18760 C44 51.0368 178.209 56.1261 C.ar 0 **** 0
18761 C45 50.4728 177.132 55.4225 C.ar 0 **** 0
18762 C46 49.0786 177.12 55.208 C.ar 0 **** -0.1268
18763 C47 48.2533 178.14 55.6528 C.ar 0 **** 0
18764 C48 48.8196 179.177 56.3631 C.ar 0 **** -0.1268
18765 C49 50.199 179.243 56.6103 C.ar 0 **** 0
18766 C50 50.7819 180.304 57.326 C.ar 0 **** 0.042
18767 C51 52.1434 180.322 57.5515 C.ar 0 **** -0.1268
18768 C52 52.9538 179.29 57.0845 C.ar 0 **** -0.1268
18769 O53 52.188 165.801 50.0586 O.3 0 **** -0.452
18770 C54 55.0188 165.691 50.3696 C.3 0 **** -0.159
18771 O55 50.8685 172.461 53.0359 O.3 0 **** -0.452
18772 C56 46.7763 177.984 55.3691 C.3 0 **** -0.106
18773 C57 45.9336 179.195 55.771 C.3 0 **** -0.159
18774 O58 55.8163 181.112 56.4048 O.3 0 **** -0.4365
18775 O59 60.9759 175.506 55.3089 O.3 0 **** -0.452
18776 O60 50.0931 181.344 57.8335 O.3 0 **** -0.452
18777 H61 50.9543 168.007 50.9523 H 0 **** 0.1268
18778 H62 55.8932 167.896 51.5181 H 0 **** 0.1268
18779 H63 51.28 170.042 52.976 H 0 **** 0.053
18780 H64 51.5028 170.809 51.3587 H 0 **** 0.053
18781 H65 56.6987 168.971 52.8131 H 0 **** 0.053
18782 H66 57.3451 170.287 51.8026 H 0 **** 0.053
18783 H67 57.4417 170.08 54.8889 H 0 **** 0.053
18784 H68 58.8062 169.748 53.7722 H 0 **** 0.053
18785 H69 58.9344 172.061 54.5805 H 0 **** 0.053
18786 H70 58.6357 172.049 52.8388 H 0 **** 0.053
18787 H71 55.487 176.798 54.6404 H 0 **** 0.053
18788 H72 59.0907 174.154 54.1006 H 0 **** 0.053
18789 H73 61.0142 180.754 55.5164 H 0 **** 0.053
18790 H74 60.6168 181.253 57.1708 H 0 **** 0.053
18791 H75 62.5436 179.654 57.1647 H 0 **** 0.053
18792 H76 61.1659 178.914 57.9853 H 0 **** 0.053
18793 H77 61.9134 178.508 55.022 H 0 **** 0.053
18794 H78 62.1886 177.342 56.3091 H 0 **** 0.053
18795 H79 55.5881 178.629 55.764 H 0 **** 0.1268
18796 H80 58.277 181.779 56.6928 H 0 **** 0.1268
18797 H81 50.3091 175.222 53.2547 H 0 **** 0.053
18798 H82 50.0357 174.364 54.8226 H 0 **** 0.053
18799 H83 54.2643 177.228 56.1511 H 0 **** 0.1268
18800 H84 48.6166 176.276 54.6629 H 0 **** 0.1268
18801 H85 48.1637 179.962 56.7329 H 0 **** 0.1268
18802 H86 52.6215 181.141 58.1105 H 0 **** 0.1268
18803 H87 54.0574 179.297 57.306 H 0 **** 0.1268
18804 H88 51.2571 165.975 50.0228 H 0 **** 0.41
18805 H89 54.4605 164.753 50.4718 H 0 **** 0.053
18806 H90 55.9437 165.578 50.9522 H 0 **** 0.053
18807 H91 55.288 165.81 49.3078 H 0 **** 0.053
18808 H92 50.1535 173.055 53.2163 H 0 **** 0.41
18809 H93 46.6061 177.764 54.3149 H 0 **** 0.053
18810 H94 44.8603 179.045 55.5402 H 0 **** 0.053
18811 H95 46.2538 180.104 55.2256 H 0 **** 0.053
18812 H96 45.9986 179.406 56.8554 H 0 **** 0.053
18813 H97 55.005 180.699 56.1558 H 0 **** 0.41
18814 H98 60.7119 174.626 55.0912 H 0 **** 0.41
18815 H99 49.1728 181.248 57.6232 H 0 **** 0.41
18816 H100 55.647 176.054 56.3237 H 0 **** 0.053
18817 H101 58.7463 173.769 55.8106 H 0 **** 0.053
18818 H102 46.471 177.112 55.9461 H 0 **** 0.053
18819 C1 67.5694 140.446 23.9118 C.ar 0 **** 0.042
18820 C2 68.0919 139.356 23.2399 C.ar 0 **** -0.1268
18821 C3 69.445 139.067 23.3057 C.ar 0 **** 0
18822 C4 70.3147 139.867 24.049 C.ar 0 **** 0
18823 C5 69.7741 140.958 24.7357 C.ar 0 **** -0.1268
18824 C6 68.4229 141.263 24.6659 C.ar 0 **** 0
18825 C7 71.6476 139.301 23.9067 C.ar 0 **** 0
18826 C8 71.5452 138.18 23.1021 C.ar 0 **** 0
18827 C9 70.1512 137.925 22.6412 C.3 0 **** -0.106
18828 C10 72.6769 137.426 22.8109 C.ar 0 **** 0
18829 C11 73.9373 137.79 23.3293 C.ar 0 **** 0
18830 C12 73.9834 138.956 24.1424 C.ar 0 **** 0
18831 C13 72.847 139.722 24.4246 C.ar 0 **** 0
18832 C14 72.9501 140.945 25.2924 C.3 0 **** -0.106
18833 C15 74.3114 141.62 25.1248 C.3 0 **** -0.106
18834 C16 75.3652 140.634 25.5495 C.3 0 **** -0.106
18835 C17 75.339 139.375 24.7087 C.ar 0 **** 0
18836 C18 76.4721 138.658 24.4949 C.ar 0 **** 0
18837 C19 76.4425 137.518 23.7418 C.ar 0 **** 0
18838 C20 75.1157 137.015 23.0483 C.ar 0 **** 0
18839 C21 74.9546 135.883 22.1529 C.ar 0 **** 0
18840 C22 73.661 135.581 21.7143 C.ar 0 **** 0
18841 C23 72.5578 136.304 22.0073 C.ar 0 **** 0.042
18842 C24 77.7223 136.717 23.5546 C.3 0 **** -0.106
18843 C25 78.9328 137.12 24.4462 C.ar 0 **** 0
18844 C26 78.9113 138.294 25.1594 C.ar 0 **** 0
18845 C27 77.7338 139.213 25.1505 C.3 0 **** -0.106
18846 C28 80.0157 138.681 25.9152 C.ar 0 **** 0.042
18847 C29 81.1718 137.922 25.9695 C.ar 0 **** 0
18848 C30 81.1706 136.736 25.2525 C.ar 0 **** 0
18849 C31 80.076 136.327 24.4949 C.ar 0 **** 0
18850 C32 82.3929 135.803 25.241 C.ar 0 **** 0
18851 C33 83.571 136.306 26.0816 C.3 0 **** -0.106
18852 C34 83.6446 137.83 26.1395 C.3 0 **** -0.106
18853 C35 82.3648 138.349 26.7907 C.3 0 **** -0.106
18854 C36 80.1817 135.012 23.7495 C.ar 0 **** -0.1268
18855 C37 81.323 134.278 23.8186 C.ar 0 **** 0.0265
18856 C38 82.3962 134.647 24.5316 C.ar 0 **** -0.1268
18857 C39 73.5093 134.392 20.8391 C.3 0 **** -0.106
18858 C40 74.9549 134.025 20.7551 C.ar 0 **** 0
18859 C41 75.7811 134.867 21.5017 C.ar 0 **** 0
18860 C42 77.1618 134.591 21.4167 C.ar 0 **** -0.1268
18861 C43 77.6614 133.508 20.6643 C.ar 0 **** 0
18862 C44 76.792 132.666 19.9387 C.ar 0 **** 0
18863 C45 75.4169 132.946 19.9847 C.ar 0 **** 0
18864 C46 74.533 132.135 19.2391 C.ar 0 **** -0.1268
18865 C47 74.9693 131.07 18.4663 C.ar 0 **** 0
18866 C48 76.3278 130.814 18.4315 C.ar 0 **** -0.1268
18867 C49 77.2569 131.586 19.1493 C.ar 0 **** 0
18868 C50 78.6398 131.334 19.1059 C.ar 0 **** 0.042
18869 C51 79.5162 132.134 19.8119 C.ar 0 **** -0.1268
18870 C52 79.0476 133.204 20.5694 C.ar 0 **** -0.1268
18871 O53 66.227 140.735 23.851 O.3 0 **** -0.452
18872 C54 67.8634 142.455 25.4265 C.3 0 **** -0.159
18873 O55 71.3645 135.929 21.5149 O.3 0 **** -0.452
18874 C56 73.9017 130.289 17.7082 C.3 0 **** -0.106
18875 C57 74.4528 129.031 17.0283 C.3 0 **** -0.159
18876 O58 81.3731 133.123 23.1335 O.3 0 **** -0.4365
18877 O59 80.0244 139.84 26.6429 O.3 0 **** -0.452
18878 O60 79.209 130.339 18.3974 O.3 0 **** -0.452
18879 H61 67.4457 138.68 22.6337 H 0 **** 0.1268
18880 H62 70.3659 141.63 25.3721 H 0 **** 0.1268
18881 H63 70.0302 137.99 21.5447 H 0 **** 0.053
18882 H64 69.7352 136.965 22.9994 H 0 **** 0.053
18883 H65 72.1995 141.686 25.0329 H 0 **** 0.053
18884 H66 72.818 140.677 26.364 H 0 **** 0.053
18885 H67 74.4553 141.95 24.067 H 0 **** 0.053
18886 H68 74.3646 142.559 25.7523 H 0 **** 0.053
18887 H69 76.3419 141.13 25.4872 H 0 **** 0.053
18888 H70 75.2043 140.379 26.6117 H 0 **** 0.053
18889 H71 77.4941 135.65 23.7636 H 0 **** 0.053
18890 H72 77.4793 139.443 26.19 H 0 **** 0.053
18891 H73 83.4694 135.903 27.11 H 0 **** 0.053
18892 H74 84.4888 135.873 25.6593 H 0 **** 0.053
18893 H75 84.5211 138.141 26.7215 H 0 **** 0.053
18894 H76 83.7638 138.247 25.1292 H 0 **** 0.053
18895 H77 82.2656 137.943 27.8065 H 0 **** 0.053
18896 H78 82.3953 139.43 26.8766 H 0 **** 0.053
18897 H79 79.3277 134.686 23.1874 H 0 **** 0.1268
18898 H80 83.2869 134.04 24.5751 H 0 **** 0.1268
18899 H81 72.9232 133.583 21.302 H 0 **** 0.053
18900 H82 73.1082 134.634 19.8417 H 0 **** 0.053
18901 H83 77.9415 135.177 21.8813 H 0 **** 0.1268
18902 H84 73.4482 132.347 19.2648 H 0 **** 0.1268
18903 H85 76.6754 129.984 17.8218 H 0 **** 0.1268
18904 H86 80.6043 131.958 19.789 H 0 **** 0.1268
18905 H87 79.7744 133.874 21.1104 H 0 **** 0.1268
18906 H88 65.8105 140.084 23.3025 H 0 **** 0.41
18907 H89 67.0263 142.908 24.8827 H 0 **** 0.053
18908 H90 68.6168 143.243 25.568 H 0 **** 0.053
18909 H91 67.4939 142.144 26.4167 H 0 **** 0.053
18910 H92 71.4552 135.151 20.9817 H 0 **** 0.41
18911 H93 73.1048 129.991 18.3974 H 0 **** 0.053
18912 H94 73.6535 128.48 16.4942 H 0 **** 0.053
18913 H95 74.8978 128.331 17.7609 H 0 **** 0.053
18914 H96 75.2259 129.277 16.2767 H 0 **** 0.053
18915 H97 80.5351 132.916 22.7516 H 0 **** 0.41
18916 H98 79.2053 140.297 26.5378 H 0 **** 0.41
18917 H99 78.534 129.847 17.9473 H 0 **** 0.41
18918 H100 78.0471 136.887 22.5079 H 0 **** 0.053
18919 H101 78.0006 140.14 24.6303 H 0 **** 0.053
18920 H102 73.4486 130.932 16.9453 H 0 **** 0.053
18921 C 13.8768 126.178 80.0668 C.3 0 **** 0.054
18922 C 14.8343 125.514 79.0357 C.3 0 **** -0.106
18923 C 16.3068 125.947 79.2795 C.3 0 **** -0.053
18924 C 16.3196 127.45 79.647 C.3 0 **** -0.053
18925 C 15.4352 127.7 80.9055 C.3 0 **** 0.054
18926 O 14.5889 126.603 81.2172 O.3 0 **** -0.32
18927 C 15.8559 128.321 78.442 C.3 0 **** -0.053
18928 C 16.3556 127.756 77.0577 C.3 0 **** 0.107
18929 C 17.576 126.865 77.2548 C.3 0 **** -0.106
18930 C 17.249 125.619 78.0944 C.3 0 **** -0.106
18931 O 16.7194 128.764 76.108 O.3 0 **** -0.32
18932 C 15.779 129.827 76.1211 C.3 0 **** 0.107
18933 C 16.0623 130.675 77.3895 C.3 0 **** -0.053
18934 C 16.3039 129.784 78.6346 C.3 0 **** -0.106
18935 C 15.0431 131.745 77.6865 C.2 0 **** 0
18936 C 13.6046 131.411 77.3175 C.3 0 **** 0
18937 C 13.4216 130.558 76.0632 C.3 0 **** 0
18938 C 14.3415 129.351 75.921 C.3 0 **** -0.053
18939 C 11.979 130.229 75.7336 C.3 0 **** 0
18940 C 11.1402 131.5 75.6526 C.3 0 **** 0
18941 C 11.2988 132.292 77.0039 C.3 0 **** 0.16
18942 C 12.7367 132.653 77.3054 C.3 0 **** 0
18943 C 12.8981 133.577 78.5433 C.3 0 **** -0.106
18944 C 14.3307 134.08 78.4464 C.3 0 **** -0.106
18945 C 15.3376 132.96 78.2072 C.2 0 **** -0.1268
18946 O 10.3751 133.356 77.3251 O.3 0 **** -0.32
18947 C 9.44418 133.591 76.2906 C.3 0 **** 0.16
18948 C 8.72712 132.331 75.7016 C.3 0 **** 0
18949 C 9.65825 131.136 75.3731 C.3 0 **** 0
18950 C 14.0873 128.691 74.5909 C.2 0 **** 0
18951 C 12.7188 128.074 74.5244 C.3 0 **** -0.053
18952 C 11.7848 129.318 74.5092 C.3 0 **** 0
18953 C 12.384 127.243 73.3053 C.2 0 **** 0
18954 C 13.1704 127.38 72.2056 C.2 0 **** 0
18955 C 14.4615 128.185 72.1849 C.3 0 **** -0.106
18956 C 14.8858 128.749 73.5311 C.2 0 **** -0.1268
18957 C 12.9145 126.56 70.9624 C.3 0 **** -0.106
18958 C 11.4158 126.356 70.7948 C.3 0 **** -0.106
18959 C 10.8225 125.908 72.1195 C.2 0 **** 0
18960 C 11.3379 126.356 73.3098 C.2 0 **** 0
18961 C 10.6811 125.934 74.6104 C.3 0 **** -0.106
18962 C 9.76856 124.724 74.4726 C.3 0 **** -0.053
18963 C 8.7931 124.95 73.3049 C.3 0 **** -0.106
18964 C 9.5788 125.054 71.9932 C.3 0 **** -0.106
18965 C 9.54788 130.375 74.0455 C.3 0 **** 0.147
18966 C 10.2913 129.054 74.1759 C.3 0 **** -0.053
18967 C 7.66995 132.632 74.6335 C.3 0 **** 0
18968 C 6.96971 131.421 74.0046 C.3 0 **** 0.147
18969 S 7.87823 130.005 73.4322 S.3 0 **** -0.294
18970 C 5.85165 131.755 73.0557 C.3 0 **** -0.053
18971 C 4.85872 132.683 73.7678 C.3 0 **** 0
18972 C 5.55897 133.985 74.3155 C.3 0 **** 0
18973 C 6.6659 133.601 75.3186 C.3 0 **** 0
18974 C 4.51192 134.854 74.9971 C.3 0 **** 0
18975 C 3.43308 135.222 73.9984 C.3 0 **** 0
18976 C 2.7126 133.963 73.357 C.3 0 **** 0
18977 C 3.79388 133.041 72.6829 C.3 0 **** -0.053
18978 C 1.73418 134.494 72.2722 C.3 0 **** 0
18979 C 0.6284 135.227 72.9989 C.3 0 **** 0.16
18980 C 1.14595 136.365 73.885 C.3 0 **** 0
18981 C 2.52784 136.326 74.4707 C.3 0 **** 0
18982 C 7.33603 134.81 76.0234 C.3 0 **** 0
18983 C 8.41492 134.411 77.0253 C.3 0 **** -0.053
18984 C 5.01473 135.975 75.9335 C.3 0 **** 0
18985 C 6.50003 136.093 76.2836 C.3 0 **** 0
18986 C 2.81935 137.128 75.7391 C.3 0 **** 0
18987 C 4.33698 137.347 75.8838 C.3 0 **** 0
18988 C 0.284844 137.601 74.1462 C.3 0 **** 0
18989 C 0.683607 138.326 75.4707 C.3 0 **** 0
18990 C 2.19744 138.545 75.6478 C.3 0 **** 0
18991 O -0.362426 135.58 72.0582 O.3 0 **** -0.32
18992 C -1.17699 134.409 72.0205 C.3 0 **** 0.107
18993 C -0.303749 133.15 71.7146 C.3 0 **** -0.053
18994 C 1.07648 133.573 71.2162 C.3 0 **** 0.107
18995 C -1.00108 132.244 70.6894 C.3 0 **** -0.106
18996 C -2.51225 132.186 70.979 C.3 0 **** -0.106
18997 C -3.17207 133.542 70.662 C.3 0 **** 0.134
18998 C -2.22423 134.73 70.9751 C.3 0 **** -0.053
18999 C -3.00016 136.008 71.381 C.3 0 **** -0.106
19000 C -4.30289 136.092 70.5961 C.3 0 **** -0.106
19001 C -5.19653 134.845 70.8764 C.3 0 **** 0.081
19002 N -4.45548 133.667 71.3231 N.3 0 **** -0.727
19003 C 6.74748 136.92 77.5739 C.3 0 **** 0.16
19004 C 6.11501 138.292 77.407 C.3 0 **** 0.16
19005 C 4.63238 138.109 77.2538 C.3 0 **** 0
19006 O 6.3817 139.198 78.4564 O.3 0 **** -0.32
19007 C 7.77851 139.219 78.7299 C.3 0 **** 0.107
19008 C 8.22506 137.839 79.104 C.3 0 **** 0.107
19009 O 8.11307 137.033 77.9432 O.3 0 **** -0.32
19010 C 7.40981 137.257 80.2878 C.3 0 **** -0.106
19011 C 6.86852 138.376 81.2233 C.3 0 **** -0.106
19012 C 7.83991 139.573 81.2347 C.3 0 **** -0.106
19013 C 7.97515 140.229 79.8315 C.3 0 **** -0.106
19014 C 2.47023 139.364 76.9876 C.3 0 **** 0
19015 C 4.01299 139.542 77.1564 C.3 0 **** -0.053
19016 C 0.0241619 139.715 75.4821 C.3 0 **** 0
19017 C 0.383022 140.526 76.7433 C.3 0 **** 0.16
19018 C 1.82966 140.739 76.9584 C.3 0 **** -0.053
19019 C -1.53059 139.452 75.3926 C.3 0 **** 0
19020 C -1.884 138.668 74.063 C.3 0 **** 0
19021 C -1.23484 137.281 74.1855 C.3 0 **** -0.053
19022 O -0.254161 141.754 76.8756 O.3 0 **** -0.32
19023 C -1.64111 141.593 76.6004 C.3 0 **** 0.16
19024 C -2.05882 140.876 75.2483 C.3 0 **** 0
19025 C -3.40229 138.52 73.7651 C.3 0 **** -0.053
19026 C -4.07945 139.882 73.9086 C.3 0 **** -0.053
19027 C -3.58171 140.729 75.1388 C.3 0 **** 0
19028 C -5.53202 139.711 74.1961 C.3 0 **** -0.053
19029 C -6.10842 138.578 73.3885 C.3 0 **** -0.106
19030 C -5.52231 137.243 73.9299 C.3 0 **** -0.106
19031 C -4.14445 137.448 74.5923 C.3 0 **** -0.106
19032 C -4.15665 142.124 75.057 C.3 0 **** 0
19033 C -3.68897 143.054 76.2156 C.3 0 **** 0
19034 C -2.2267 142.978 76.647 C.3 0 **** 0
19035 C -6.10211 141.078 73.8279 C.3 0 **** 0
19036 C -5.65916 142.109 74.8825 C.3 0 **** 0
19037 C 9.07789 124.366 75.8141 C.3 0 **** -0.053
19038 C 7.95961 125.347 76.1967 C.3 0 **** -0.159
19039 C 8.53848 122.931 75.7981 C.3 0 **** -0.159
19040 O 1.84343 132.44 70.831 O.3 0 **** -0.57
19041 C -1.52939 144.13 77.4242 C.3 0 **** -0.053
19042 C -2.46009 145.202 77.9995 C.3 0 **** -0.053
19043 C -3.55598 145.558 76.9788 C.3 0 **** 0
19044 C -4.42571 144.341 76.5355 C.3 0 **** 0
19045 C -5.66451 144.541 75.6801 C.3 0 **** 0
19046 C -6.30471 145.897 75.7194 C.3 0 **** 0
19047 C -5.69049 146.947 76.6786 C.3 0 **** 0
19048 C -4.46603 146.638 77.5731 C.3 0 **** -0.053
19049 C -6.43807 148.253 76.9103 C.3 0 **** -0.053
19050 C -7.87082 148.384 76.3486 C.3 0 **** -0.053
19051 C -8.30222 147.404 75.2141 C.3 0 **** 0
19052 C -7.82547 145.943 75.4319 C.3 0 **** 0
19053 C -8.19004 145.014 74.2088 C.3 0 **** 0
19054 C -7.68885 143.544 74.4707 C.3 0 **** 0
19055 C -6.15645 143.523 74.6447 C.3 0 **** 0
19056 C -9.73742 145.041 73.9971 C.3 0 **** 0
19057 C -10.1839 146.53 73.7517 C.3 0 **** -0.053
19058 C -9.81571 147.445 74.936 C.3 0 **** -0.053
19059 C -7.63384 141.109 73.6475 C.3 0 **** -0.053
19060 C -8.01142 142.605 73.2396 C.3 0 **** 0
19061 C -10.1207 144.131 72.7428 C.3 0 **** 0.02
19062 C -9.54712 142.678 72.8867 C.3 0 **** 0
19063 C -9.91404 141.627 71.8114 C.3 0 **** -0.106
19064 C -10.837 142.244 70.7986 C.3 0 **** -0.106
19065 C -11.9889 142.954 71.5014 C.3 0 **** -0.086
19066 C -11.6158 144.03 72.4532 C.2 0 **** 0.379
19067 O -12.4666 144.795 72.8745 O.2 0 **** -0.419
19068 H 13.1155 125.465 80.4119 H 0 **** 0.053
19069 H 13.3314 127.017 79.6072 H 0 **** 0.053
19070 H 14.7764 124.408 79.0767 H 0 **** 0.053
19071 H 14.5233 125.779 78.008 H 0 **** 0.053
19072 H 16.6518 125.394 80.1683 H 0 **** 0.053
19073 H 17.365 127.739 79.8614 H 0 **** 0.053
19074 H 14.8406 128.624 80.7972 H 0 **** 0.053
19075 H 16.0688 127.844 81.7878 H 0 **** 0.053
19076 H 14.7524 128.311 78.4646 H 0 **** 0.053
19077 H 15.5653 127.122 76.6157 H 0 **** 0.053
19078 H 18.3589 127.474 77.7449 H 0 **** 0.053
19079 H 17.9741 126.587 76.2659 H 0 **** 0.053
19080 H 18.1836 125.175 78.464 H 0 **** 0.053
19081 H 16.781 124.863 77.4475 H 0 **** 0.053
19082 H 16.0377 130.47 75.2779 H 0 **** 0.053
19083 H 16.9995 131.21 77.2003 H 0 **** 0.053
19084 H 15.8527 130.197 79.5631 H 0 **** 0.053
19085 H 17.3936 129.761 78.812 H 0 **** 0.053
19086 H 14.0435 128.62 76.6875 H 0 **** 0.053
19087 H 12.1745 134.415 78.488 H 0 **** 0.053
19088 H 12.6914 133.029 79.486 H 0 **** 0.053
19089 H 14.6 134.66 79.3324 H 0 **** 0.053
19090 H 14.3879 134.761 77.577 H 0 **** 0.053
19091 H 16.3526 133.204 78.5047 H 0 **** 0.1268
19092 H 12.5373 127.493 75.4607 H 0 **** 0.053
19093 H 14.3817 129.029 71.4358 H 0 **** 0.053
19094 H 15.2945 127.523 71.814 H 0 **** 0.053
19095 H 15.8608 129.226 73.5667 H 0 **** 0.1268
19096 H 13.3637 127.032 70.0616 H 0 **** 0.053
19097 H 13.4169 125.586 71.0993 H 0 **** 0.053
19098 H 11.1993 125.628 69.9879 H 0 **** 0.053
19099 H 10.9381 127.309 70.4982 H 0 **** 0.053
19100 H 11.4701 125.686 75.336 H 0 **** 0.053
19101 H 10.1113 126.774 75.0531 H 0 **** 0.053
19102 H 10.4136 123.862 74.2053 H 0 **** 0.053
19103 H 8.23214 125.883 73.4737 H 0 **** 0.053
19104 H 8.05098 124.142 73.2303 H 0 **** 0.053
19105 H 8.91673 125.444 71.1852 H 0 **** 0.053
19106 H 9.89068 124.034 71.6753 H 0 **** 0.053
19107 H 10.1479 128.452 73.2136 H 0 **** 0.053
19108 H 5.32948 130.871 72.5804 H 0 **** 0.053
19109 H 3.30639 132.055 72.3996 H 0 **** 0.053
19110 H 8.95511 135.279 77.5038 H 0 **** 0.053
19111 H -1.66958 134.297 73.001 H 0 **** 0.053
19112 H -0.190996 132.548 72.6397 H 0 **** 0.053
19113 H 0.941409 134.216 70.3574 H 0 **** 0.053
19114 H -0.837489 132.647 69.6662 H 0 **** 0.053
19115 H -0.539219 131.23 70.7012 H 0 **** 0.053
19116 H -2.63338 131.944 72.0479 H 0 **** 0.053
19117 H -3.00678 131.382 70.4127 H 0 **** 0.053
19118 H -3.36098 133.561 69.5764 H 0 **** 0.053
19119 H -1.64663 134.962 70.0565 H 0 **** 0.053
19120 H -3.25968 135.925 72.4467 H 0 **** 0.053
19121 H -2.36972 136.906 71.2567 H 0 **** 0.053
19122 H -4.04137 136.149 69.5238 H 0 **** 0.053
19123 H -4.84928 137.023 70.8225 H 0 **** 0.053
19124 H -5.749 134.579 69.9612 H 0 **** 0.053
19125 H -5.96689 135.09 71.6284 H 0 **** 0.053
19126 H -4.30783 133.705 72.312 H 0 **** 0.353
19127 H 8.28874 139.511 77.8123 H 0 **** 0.053
19128 H 9.27311 137.861 79.3912 H 0 **** 0.053
19129 H 6.54647 136.651 79.9397 H 0 **** 0.053
19130 H 8.0222 136.545 80.8805 H 0 **** 0.053
19131 H 6.70216 137.986 82.2482 H 0 **** 0.053
19132 H 5.87586 138.715 80.8643 H 0 **** 0.053
19133 H 8.83 139.195 81.5437 H 0 **** 0.053
19134 H 7.53248 140.325 81.9836 H 0 **** 0.053
19135 H 8.9355 140.771 79.7519 H 0 **** 0.053
19136 H 7.17229 140.992 79.71 H 0 **** 0.053
19137 H 4.20278 140.132 78.1182 H 0 **** 0.053
19138 H 2.09243 141.321 77.8665 H 0 **** 0.053
19139 H -1.55544 136.686 73.2841 H 0 **** 0.053
19140 H -3.43687 138.215 72.7283 H 0 **** 0.053
19141 H -3.90164 140.454 72.9769 H 0 **** 0.053
19142 H -5.72567 139.509 75.2711 H 0 **** 0.053
19143 H -5.82859 138.725 72.3281 H 0 **** 0.053
19144 H -7.21812 138.518 73.42 H 0 **** 0.053
19145 H -5.41911 136.516 73.0991 H 0 **** 0.053
19146 H -6.23179 136.787 74.6472 H 0 **** 0.053
19147 H -3.59862 136.489 74.6391 H 0 **** 0.053
19148 H -4.2539 137.799 75.6269 H 0 **** 0.053
19149 H 9.85212 124.414 76.6034 H 0 **** 0.053
19150 H 7.57523 125.129 77.2058 H 0 **** 0.053
19151 H 7.11475 125.271 75.4927 H 0 **** 0.053
19152 H 8.30195 126.394 76.1935 H 0 **** 0.053
19153 H 9.33932 122.206 75.5817 H 0 **** 0.053
19154 H 7.7597 122.811 75.0287 H 0 **** 0.053
19155 H 8.09724 122.662 76.7702 H 0 **** 0.053
19156 H 2.68317 132.787 70.5354 H 0 **** 0.41
19157 H -0.623418 143.846 78.0303 H 0 **** 0.053
19158 H -1.88479 146.104 78.3492 H 0 **** 0.053
19159 H -3.9237 147.563 77.9099 H 0 **** 0.053
19160 H -5.97505 149.056 77.5391 H 0 **** 0.053
19161 H -8.3108 149.412 76.3384 H 0 **** 0.053
19162 H -11.2817 146.623 73.5339 H 0 **** 0.053
19163 H -10.1773 148.492 74.8141 H 0 **** 0.053
19164 H -7.97098 140.379 72.826 H 0 **** 0.053
19165 H -9.01267 141.211 71.3286 H 0 **** 0.053
19166 H -10.3894 140.83 72.3801 H 0 **** 0.053
19167 H -11.2225 141.477 70.1296 H 0 **** 0.053
19168 H -10.2647 142.96 70.1741 H 0 **** 0.053
19169 H -12.5561 142.259 72.1259 H 0 **** 0.053
19170 H -12.673 143.489 70.8467 H 0 **** 0.053
19171 C 96.8522 164.138 43.3047 C.3 0 **** 0.054
19172 C 97.1826 164.369 44.8074 C.3 0 **** -0.106
19173 C 97.9133 163.14 45.4155 C.3 0 **** -0.053
19174 C 97.2638 161.855 44.8479 C.3 0 **** -0.053
19175 C 97.3476 161.856 43.2918 C.3 0 **** 0.054
19176 O 97.6816 163.128 42.754 O.3 0 **** -0.32
19177 C 95.7932 161.711 45.3399 C.3 0 **** -0.053
19178 C 95.5991 162.205 46.8243 C.3 0 **** 0.107
19179 C 96.9261 162.178 47.5729 C.3 0 **** -0.106
19180 C 97.9503 163.15 46.9641 C.3 0 **** -0.106
19181 O 94.6693 161.427 47.5863 O.3 0 **** -0.32
19182 C 93.5252 161.111 46.8087 C.3 0 **** 0.107
19183 C 93.9341 159.979 45.8288 C.3 0 **** -0.053
19184 C 95.3134 160.255 45.1765 C.3 0 **** -0.106
19185 C 92.9057 159.634 44.7823 C.2 0 **** 0
19186 C 92.0641 160.796 44.2724 C.3 0 **** 0
19187 C 91.7238 161.873 45.3022 C.3 0 **** 0
19188 C 92.8644 162.344 46.1956 C.3 0 **** -0.053
19189 C 90.8997 163.023 44.7583 C.3 0 **** 0
19190 C 89.638 162.507 44.0745 C.3 0 **** 0
19191 C 90.0565 161.47 42.9659 C.3 0 **** 0.16
19192 C 90.8426 160.304 43.5229 C.3 0 **** 0
19193 C 91.1205 159.188 42.4791 C.3 0 **** -0.106
19194 C 91.5898 158.007 43.3153 C.3 0 **** -0.106
19195 C 92.6729 158.383 44.32 C.2 0 **** -0.1268
19196 O 89.1005 161.072 41.9586 O.3 0 **** -0.32
19197 C 87.8311 161.655 42.1606 C.3 0 **** 0.16
19198 C 87.8091 163.196 42.4323 C.3 0 **** 0
19199 C 88.8408 163.696 43.4751 C.3 0 **** 0
19200 C 92.3273 163.325 47.205 C.2 0 **** 0
19201 C 91.8658 164.6 46.5566 C.3 0 **** -0.053
19202 C 90.6037 164.144 45.7698 C.3 0 **** 0
19203 C 91.4459 165.735 47.4643 C.2 0 **** 0
19204 C 91.1747 165.444 48.7638 C.2 0 **** 0
19205 C 91.4326 164.085 49.3974 C.3 0 **** -0.106
19206 C 92.1319 163.081 48.4959 C.2 0 **** -0.1268
19207 C 90.7798 166.532 49.7354 C.3 0 **** -0.106
19208 C 89.946 167.577 49.0082 C.3 0 **** -0.106
19209 C 90.6382 167.952 47.7092 C.2 0 **** 0
19210 C 91.3657 167.025 47.0057 C.2 0 **** 0
19211 C 91.9933 167.421 45.6826 C.3 0 **** -0.106
19212 C 92.0936 168.926 45.4768 C.3 0 **** -0.053
19213 C 90.7263 169.572 45.7575 C.3 0 **** -0.106
19214 C 90.3499 169.358 47.2277 C.3 0 **** -0.106
19215 C 88.4455 164.675 44.5879 C.3 0 **** 0.147
19216 C 89.7107 165.272 45.186 C.3 0 **** -0.053
19217 C 86.4096 163.805 42.5721 C.3 0 **** 0
19218 C 86.3458 165.308 42.8751 C.3 0 **** 0.147
19219 S 87.3499 166.053 44.1375 S.3 0 **** -0.294
19220 C 84.962 165.896 42.8802 C.3 0 **** -0.053
19221 C 84.2726 165.551 41.5533 C.3 0 **** 0
19222 C 84.2365 163.996 41.2954 C.3 0 **** 0
19223 C 85.6747 163.44 41.2519 C.3 0 **** 0
19224 C 83.5331 163.736 39.9713 C.3 0 **** 0
19225 C 82.123 164.288 40.0315 C.3 0 **** 0
19226 C 82.0681 165.843 40.3418 C.3 0 **** 0
19227 C 82.8259 166.124 41.6906 C.3 0 **** -0.053
19228 C 80.5706 166.229 40.4975 C.3 0 **** 0
19229 C 79.9382 166.098 39.1292 C.3 0 **** 0.16
19230 C 80.0908 164.697 38.5308 C.3 0 **** 0
19231 C 81.2424 163.811 38.9098 C.3 0 **** 0
19232 C 85.7667 161.938 40.8718 C.3 0 **** 0
19233 C 87.1971 161.411 40.8153 C.3 0 **** -0.053
19234 C 83.7159 162.344 39.3281 C.3 0 **** 0
19235 C 84.6987 161.332 39.922 C.3 0 **** 0
19236 C 81.6827 162.712 37.9433 C.3 0 **** 0
19237 C 82.5056 161.65 38.6968 C.3 0 **** 0
19238 C 79.0356 164.14 37.5742 C.3 0 **** 0
19239 C 79.6143 163.028 36.6431 C.3 0 **** 0
19240 C 80.4537 161.96 37.3691 C.3 0 **** 0
19241 O 78.6209 166.599 39.1998 O.3 0 **** -0.32
19242 C 78.8127 167.994 38.9673 C.3 0 **** 0.107
19243 C 79.8621 168.573 39.9705 C.3 0 **** -0.053
19244 C 80.1138 167.579 41.1025 C.3 0 **** 0.107
19245 C 79.3924 169.926 40.525 C.3 0 **** -0.106
19246 C 78.7323 170.753 39.4064 C.3 0 **** -0.106
19247 C 77.3864 170.126 38.997 C.3 0 **** 0.134
19248 C 77.4206 168.577 39.0917 C.3 0 **** -0.053
19249 C 76.4744 167.905 38.0656 C.3 0 **** -0.106
19250 C 75.2257 168.758 37.8802 C.3 0 **** -0.106
19251 C 75.6014 170.181 37.3675 C.3 0 **** 0.081
19252 N 76.9667 170.592 37.6906 N.3 0 **** -0.727
19253 C 85.1122 160.232 38.9074 C.3 0 **** 0.16
19254 C 83.8591 159.54 38.3943 C.3 0 **** 0.16
19255 C 83.0304 160.556 37.6613 C.3 0 **** 0
19256 O 84.0977 158.424 37.5633 O.3 0 **** -0.32
19257 C 85.0417 157.557 38.1825 C.3 0 **** 0.107
19258 C 86.3136 158.31 38.4247 C.3 0 **** 0.107
19259 O 86.0406 159.287 39.4157 O.3 0 **** -0.32
19260 C 86.8752 158.95 37.1283 C.3 0 **** -0.106
19261 C 86.4631 158.146 35.8613 C.3 0 **** -0.106
19262 C 86.3302 156.649 36.2031 C.3 0 **** -0.106
19263 C 85.21 156.385 37.2488 C.3 0 **** -0.106
19264 C 80.9155 160.842 36.3327 C.3 0 **** 0
19265 C 81.7904 159.792 37.0904 C.3 0 **** -0.053
19266 C 78.4403 162.296 35.972 C.3 0 **** 0
19267 C 78.9094 161.153 35.0496 C.3 0 **** 0.16
19268 C 79.7363 160.119 35.707 C.3 0 **** -0.053
19269 C 77.6538 163.401 35.1619 C.3 0 **** 0
19270 C 77.132 164.535 36.1353 C.3 0 **** 0
19271 C 78.3771 165.24 36.6958 C.3 0 **** -0.053
19272 O 77.9116 160.508 34.329 O.3 0 **** -0.32
19273 C 77.0538 161.481 33.7439 C.3 0 **** 0.16
19274 C 76.4437 162.604 34.6836 C.3 0 **** 0
19275 C 76.1783 165.577 35.4868 C.3 0 **** -0.053
19276 C 75.087 164.846 34.7078 C.3 0 **** -0.053
19277 C 75.5962 163.603 33.8856 C.3 0 **** 0
19278 C 74.5249 165.73 33.6478 C.3 0 **** -0.053
19279 C 74.382 167.143 34.1491 C.3 0 **** -0.106
19280 C 75.8052 167.743 34.3361 C.3 0 **** -0.106
19281 C 76.8576 166.648 34.606 C.3 0 **** -0.106
19282 C 74.413 162.842 33.3365 C.3 0 **** 0
19283 C 74.8158 161.567 32.5362 C.3 0 **** 0
19284 C 75.945 160.703 33.0905 C.3 0 **** 0
19285 C 73.1933 165.055 33.3295 C.3 0 **** 0
19286 C 73.4632 163.74 32.5759 C.3 0 **** 0
19287 C 92.6881 169.28 44.0891 C.3 0 **** -0.053
19288 C 91.7051 169.042 42.9334 C.3 0 **** -0.159
19289 C 93.2025 170.724 44.0552 C.3 0 **** -0.159
19290 O 80.9831 168.136 42.0793 O.3 0 **** -0.57
19291 C 76.1279 159.214 32.6814 C.3 0 **** -0.053
19292 C 75.3111 158.752 31.4706 C.3 0 **** -0.053
19293 C 73.8853 159.328 31.5397 C.3 0 **** 0
19294 C 73.8361 160.887 31.5986 C.3 0 **** 0
19295 C 72.5159 161.628 31.484 C.3 0 **** 0
19296 C 71.3879 160.905 30.8088 C.3 0 **** 0
19297 C 71.6883 159.5 30.2283 C.3 0 **** 0
19298 C 73.0868 158.844 30.3249 C.3 0 **** -0.053
19299 C 70.6403 158.832 29.3493 C.3 0 **** -0.053
19300 C 69.421 159.668 28.9028 C.3 0 **** -0.053
19301 C 69.0818 160.955 29.7162 C.3 0 **** 0
19302 C 70.3262 161.792 30.1135 C.3 0 **** 0
19303 C 69.9442 163.022 31.0255 C.3 0 **** 0
19304 C 71.2343 163.843 31.405 C.3 0 **** 0
19305 C 72.2218 162.956 32.1908 C.3 0 **** 0
19306 C 68.9231 163.922 30.259 C.3 0 **** 0
19307 C 67.6627 163.052 29.8956 C.3 0 **** -0.053
19308 C 68.0326 161.84 29.0189 C.3 0 **** -0.053
19309 C 72.1968 165.936 32.5471 C.3 0 **** -0.053
19310 C 70.8773 165.06 32.3503 C.3 0 **** 0
19311 C 68.5009 165.155 31.1806 C.3 0 **** 0.02
19312 C 69.754 165.95 31.6917 C.3 0 **** 0
19313 C 69.5268 167.243 32.5106 C.3 0 **** -0.106
19314 C 68.0532 167.513 32.6272 C.3 0 **** -0.106
19315 C 67.3946 167.433 31.2547 C.3 0 **** -0.086
19316 C 67.5382 166.145 30.5306 C.2 0 **** 0.379
19317 O 66.8562 165.919 29.5456 O.2 0 **** -0.419
19318 H 97.0319 165.049 42.7181 H 0 **** 0.053
19319 H 95.7875 163.889 43.1742 H 0 **** 0.053
19320 H 97.814 165.267 44.9541 H 0 **** 0.053
19321 H 96.2535 164.578 45.3697 H 0 **** 0.053
19322 H 98.9481 163.173 45.0377 H 0 **** 0.053
19323 H 97.8175 160.987 45.2513 H 0 **** 0.053
19324 H 96.4104 161.485 42.8423 H 0 **** 0.053
19325 H 98.1401 161.178 42.9575 H 0 **** 0.053
19326 H 95.1826 162.335 44.6638 H 0 **** 0.053
19327 H 95.2588 163.257 46.8173 H 0 **** 0.053
19328 H 97.3055 161.139 47.5432 H 0 **** 0.053
19329 H 96.7385 162.408 48.6336 H 0 **** 0.053
19330 H 98.9556 162.888 47.3217 H 0 **** 0.053
19331 H 97.7445 164.165 47.333 H 0 **** 0.053
19332 H 92.809 160.656 47.4954 H 0 **** 0.053
19333 H 94.0485 159.073 46.4338 H 0 **** 0.053
19334 H 95.3574 159.961 44.1048 H 0 **** 0.053
19335 H 96.0516 159.618 45.6951 H 0 **** 0.053
19336 H 93.5648 162.91 45.5622 H 0 **** 0.053
19337 H 90.1908 158.945 41.9274 H 0 **** 0.053
19338 H 91.8693 159.515 41.7279 H 0 **** 0.053
19339 H 91.9236 157.186 42.6755 H 0 **** 0.053
19340 H 90.7216 157.641 43.8942 H 0 **** 0.053
19341 H 93.2841 157.548 44.6486 H 0 **** 0.1268
19342 H 92.6444 164.941 45.832 H 0 **** 0.053
19343 H 90.4623 163.639 49.7698 H 0 **** 0.053
19344 H 92.0757 164.229 50.3118 H 0 **** 0.053
19345 H 92.433 162.146 48.9598 H 0 **** 0.1268
19346 H 90.2383 166.119 50.6139 H 0 **** 0.053
19347 H 91.7106 166.989 50.1172 H 0 **** 0.053
19348 H 89.7742 168.467 49.6464 H 0 **** 0.053
19349 H 88.9485 167.161 48.7692 H 0 **** 0.053
19350 H 93.0094 167.002 45.6382 H 0 **** 0.053
19351 H 91.4397 166.972 44.8355 H 0 **** 0.053
19352 H 92.8054 169.309 46.2368 H 0 **** 0.053
19353 H 89.9642 169.109 45.1107 H 0 **** 0.053
19354 H 90.7275 170.647 45.5269 H 0 **** 0.053
19355 H 89.2759 169.613 47.3846 H 0 **** 0.053
19356 H 90.9338 170.066 47.8581 H 0 **** 0.053
19357 H 89.4173 166.057 45.9646 H 0 **** 0.053
19358 H 84.8995 167.003 43.1073 H 0 **** 0.053
19359 H 82.9544 167.247 41.8092 H 0 **** 0.053
19360 H 87.2806 160.305 40.5991 H 0 **** 0.053
19361 H 79.1682 168.128 37.9318 H 0 **** 0.053
19362 H 80.8141 168.767 39.4345 H 0 **** 0.053
19363 H 79.1643 167.349 41.5657 H 0 **** 0.053
19364 H 78.6562 169.757 41.3409 H 0 **** 0.053
19365 H 80.2499 170.466 40.9875 H 0 **** 0.053
19366 H 79.4259 170.759 38.5494 H 0 **** 0.053
19367 H 78.5867 171.802 39.7059 H 0 **** 0.053
19368 H 76.6353 170.474 39.7245 H 0 **** 0.053
19369 H 77.081 168.286 40.1072 H 0 **** 0.053
19370 H 76.9952 167.865 37.0975 H 0 **** 0.053
19371 H 76.2414 166.869 38.3665 H 0 **** 0.053
19372 H 74.7174 168.819 38.8596 H 0 **** 0.053
19373 H 74.5063 168.274 37.1976 H 0 **** 0.053
19374 H 74.9078 170.92 37.8001 H 0 **** 0.053
19375 H 75.4584 170.243 36.2746 H 0 **** 0.053
19376 H 77.6051 170.245 37.0028 H 0 **** 0.353
19377 H 84.6292 157.256 39.1452 H 0 **** 0.053
19378 H 87.0657 157.635 38.8242 H 0 **** 0.053
19379 H 86.531 159.997 36.9991 H 0 **** 0.053
19380 H 87.9821 159.028 37.1711 H 0 **** 0.053
19381 H 87.1906 158.306 35.0398 H 0 **** 0.053
19382 H 85.4916 158.521 35.4812 H 0 **** 0.053
19383 H 87.2936 156.318 36.6282 H 0 **** 0.053
19384 H 86.1552 156.048 35.2918 H 0 **** 0.053
19385 H 85.3972 155.434 37.781 H 0 **** 0.053
19386 H 84.2394 156.261 36.7159 H 0 **** 0.053
19387 H 82.1171 158.991 36.3424 H 0 **** 0.053
19388 H 80.0782 159.296 35.0461 H 0 **** 0.053
19389 H 78.014 166.105 37.3195 H 0 **** 0.053
19390 H 75.7317 166.084 36.3314 H 0 **** 0.053
19391 H 74.3145 164.513 35.4285 H 0 **** 0.053
19392 H 75.1576 165.745 32.7348 H 0 **** 0.053
19393 H 73.8391 167.121 35.1129 H 0 **** 0.053
19394 H 73.8022 167.808 33.4721 H 0 **** 0.053
19395 H 75.8012 168.457 35.184 H 0 **** 0.053
19396 H 76.0822 168.333 33.4415 H 0 **** 0.053
19397 H 77.7521 167.09 35.0811 H 0 **** 0.053
19398 H 77.195 166.187 33.6684 H 0 **** 0.053
19399 H 93.5618 168.62 43.9295 H 0 **** 0.053
19400 H 92.2001 169.192 41.9607 H 0 **** 0.053
19401 H 90.8571 169.744 42.9898 H 0 **** 0.053
19402 H 91.2919 168.02 42.9389 H 0 **** 0.053
19403 H 93.9531 170.898 44.8424 H 0 **** 0.053
19404 H 92.3797 171.439 44.2106 H 0 **** 0.053
19405 H 93.6729 170.955 43.0871 H 0 **** 0.053
19406 H 81.0893 167.459 42.7448 H 0 **** 0.41
19407 H 77.162 158.785 32.8069 H 0 **** 0.053
19408 H 75.3206 157.632 31.3691 H 0 **** 0.053
19409 H 73.0563 157.727 30.2093 H 0 **** 0.053
19410 H 70.806 157.787 28.9825 H 0 **** 0.053
19411 H 68.5683 159.103 28.4502 H 0 **** 0.053
19412 H 66.8561 163.648 29.3904 H 0 **** 0.053
19413 H 67.1488 161.243 28.6955 H 0 **** 0.053
19414 H 71.9491 166.898 33.1251 H 0 **** 0.053
19415 H 70.0011 167.18 33.5058 H 0 **** 0.053
19416 H 70.049 168.007 31.9376 H 0 **** 0.053
19417 H 67.8884 168.497 33.0646 H 0 **** 0.053
19418 H 67.6014 166.772 33.3175 H 0 **** 0.053
19419 H 67.8374 168.155 30.5635 H 0 **** 0.053
19420 H 66.3131 167.549 31.2514 H 0 **** 0.053
19421 C 59.9631 121.257 107.663 C.3 0 **** 0.054
19422 C 58.961 121.207 108.852 C.3 0 **** -0.106
19423 C 59.0643 119.857 109.614 C.3 0 **** -0.053
19424 C 59.2529 118.723 108.578 C.3 0 **** -0.053
19425 C 60.5244 118.992 107.718 C.3 0 **** 0.054
19426 O 61.0118 120.32 107.845 O.3 0 **** -0.32
19427 C 57.9845 118.567 107.688 C.3 0 **** -0.053
19428 C 56.6478 118.804 108.489 C.3 0 **** 0.107
19429 C 56.8741 118.582 109.98 C.3 0 **** -0.106
19430 C 57.8712 119.595 110.567 C.3 0 **** -0.106
19431 O 55.5672 117.951 108.096 O.3 0 **** -0.32
19432 C 55.5129 117.831 106.683 C.3 0 **** 0.107
19433 C 56.6547 116.869 106.259 C.3 0 **** -0.053
19434 C 57.9785 117.187 107.001 C.3 0 **** -0.106
19435 C 56.8854 116.762 104.774 C.2 0 **** 0
19436 C 56.6443 118.034 103.972 C.3 0 **** 0
19437 C 55.5114 118.929 104.472 C.3 0 **** 0
19438 C 55.4557 119.182 105.974 C.3 0 **** -0.053
19439 C 55.3085 120.194 103.662 C.3 0 **** 0
19440 C 55.1315 119.867 102.184 C.3 0 **** 0
19441 C 56.3705 119.022 101.705 C.3 0 **** 0.16
19442 C 56.54 117.74 102.489 C.3 0 **** 0
19443 C 57.6499 116.81 101.927 C.3 0 **** -0.106
19444 C 57.4098 115.48 102.625 C.3 0 **** -0.106
19445 C 57.2427 115.623 104.134 C.2 0 **** -0.1268
19446 O 56.6177 118.849 100.292 O.3 0 **** -0.32
19447 C 55.621 119.45 99.493 C.3 0 **** 0.16
19448 C 55.2254 120.919 99.8603 C.3 0 **** 0
19449 C 54.9842 121.179 101.368 C.3 0 **** 0
19450 C 54.2289 119.997 106.291 C.2 0 **** 0
19451 C 54.3166 121.386 105.724 C.3 0 **** -0.053
19452 C 54.2128 121.135 104.192 C.3 0 **** 0
19453 C 53.2246 122.364 106.097 C.2 0 **** 0
19454 C 52.0715 121.865 106.614 C.2 0 **** 0
19455 C 51.8801 120.405 106.999 C.3 0 **** -0.106
19456 C 53.1237 119.541 106.87 C.2 0 **** -0.1268
19457 C 50.9497 122.785 107.037 C.3 0 **** -0.106
19458 C 50.8969 123.979 106.096 C.3 0 **** -0.106
19459 C 52.2977 124.54 105.924 C.2 0 **** 0
19460 C 53.3949 123.716 105.946 C.2 0 **** 0
19461 C 54.7727 124.306 105.712 C.3 0 **** -0.106
19462 C 54.8315 125.817 105.885 C.3 0 **** -0.053
19463 C 53.7059 126.47 105.065 C.3 0 **** -0.106
19464 C 52.3462 126.021 105.612 C.3 0 **** -0.106
19465 C 53.7652 121.968 101.859 C.3 0 **** 0.147
19466 C 54.0026 122.39 103.302 C.3 0 **** -0.053
19467 C 54.1966 121.565 98.9253 C.3 0 **** 0
19468 C 53.7628 122.995 99.2697 C.3 0 **** 0.147
19469 S 53.2885 123.448 100.92 S.3 0 **** -0.294
19470 C 52.8422 123.631 98.2686 C.3 0 **** -0.053
19471 C 53.4976 123.558 96.8833 C.3 0 **** 0
19472 C 53.8483 122.076 96.4749 C.3 0 **** 0
19473 C 54.8219 121.467 97.5055 C.3 0 **** 0
19474 C 54.4874 122.086 95.0932 C.3 0 **** 0
19475 C 53.5176 122.685 94.0937 C.3 0 **** 0
19476 C 53.0725 124.164 94.4597 C.3 0 **** 0
19477 C 52.4454 124.168 95.9027 C.3 0 **** -0.053
19478 C 51.993 124.588 93.4238 C.3 0 **** 0
19479 C 52.695 124.729 92.0906 C.3 0 **** 0.16
19480 C 53.4063 123.445 91.6526 C.3 0 **** 0
19481 C 53.9144 122.456 92.6614 C.3 0 **** 0
19482 C 55.3411 120.052 97.135 C.3 0 **** 0
19483 C 56.3154 119.474 98.1553 C.3 0 **** -0.053
19484 C 55.2551 120.819 94.6538 C.3 0 **** 0
19485 C 55.4989 119.672 95.6382 C.3 0 **** 0
19486 C 55.0594 121.52 92.2748 C.3 0 **** 0
19487 C 55.0861 120.305 93.2211 C.3 0 **** 0
19488 C 53.5764 123.117 90.1688 C.3 0 **** 0
19489 C 54.7815 122.157 89.9119 C.3 0 **** 0
19490 C 54.8396 120.94 90.8534 C.3 0 **** 0
19491 O 51.7798 125.272 91.1639 O.3 0 **** -0.32
19492 C 51.9263 126.675 91.3783 C.3 0 **** 0.107
19493 C 51.7175 127.019 92.8883 C.3 0 **** -0.053
19494 C 51.0924 125.832 93.6176 C.3 0 **** 0.107
19495 C 50.8479 128.276 93.0424 C.3 0 **** -0.106
19496 C 51.2322 129.316 91.974 C.3 0 **** -0.106
19497 C 50.7994 128.835 90.576 C.3 0 **** 0.134
19498 C 50.9149 127.294 90.4361 C.3 0 **** -0.053
19499 C 51.2153 126.858 88.9805 C.3 0 **** -0.106
19500 C 50.5051 127.789 88.006 C.3 0 **** -0.106
19501 C 50.9817 129.26 88.2032 C.3 0 **** 0.081
19502 N 51.5176 129.541 89.5337 N.3 0 **** -0.727
19503 C 56.6672 118.748 95.2024 C.3 0 **** 0.16
19504 C 56.3802 118.217 93.8064 C.3 0 **** 0.16
19505 C 56.3383 119.384 92.8612 C.3 0 **** 0
19506 O 57.2988 117.253 93.3392 O.3 0 **** -0.32
19507 C 57.4844 116.247 94.3291 C.3 0 **** 0.107
19508 C 57.9891 116.884 95.5872 C.3 0 **** 0.107
19509 O 56.9383 117.684 96.102 O.3 0 **** -0.32
19510 C 59.2792 117.711 95.3514 C.3 0 **** -0.106
19511 C 60.1088 117.162 94.1554 C.3 0 **** -0.106
19512 C 59.9228 115.636 94.038 C.3 0 **** -0.106
19513 C 58.4472 115.248 93.7373 C.3 0 **** -0.106
19514 C 56.0564 119.998 90.4397 C.3 0 **** 0
19515 C 56.1113 118.792 91.4311 C.3 0 **** -0.053
19516 C 54.6722 121.61 88.4788 C.3 0 **** 0
19517 C 55.8047 120.625 88.1347 C.3 0 **** 0.16
19518 C 55.9086 119.456 89.03 C.3 0 **** -0.053
19519 C 54.7054 122.876 87.5341 C.3 0 **** 0
19520 C 53.4983 123.847 87.8649 C.3 0 **** 0
19521 C 53.7429 124.383 89.2841 C.3 0 **** -0.053
19522 O 55.8274 120.164 86.8255 O.3 0 **** -0.32
19523 C 55.6601 121.263 85.9385 C.3 0 **** 0.16
19524 C 54.4295 122.235 86.1778 C.3 0 **** 0
19525 C 53.3115 125.031 86.8754 C.3 0 **** -0.053
19526 C 53.3358 124.5 85.4434 C.3 0 **** -0.053
19527 C 54.4275 123.397 85.1766 C.3 0 **** 0
19528 C 53.7275 125.582 84.4957 C.3 0 **** -0.053
19529 C 53.0931 126.891 84.8848 C.3 0 **** -0.106
19530 C 53.7503 127.38 86.2076 C.3 0 **** -0.106
19531 C 54.3007 126.205 87.0421 C.3 0 **** -0.106
19532 C 54.2182 122.8 83.805 C.3 0 **** 0
19533 C 55.2349 121.67 83.4649 C.3 0 **** 0
19534 C 55.5727 120.663 84.5625 C.3 0 **** 0
19535 C 53.2375 125.038 83.1563 C.3 0 **** 0
19536 C 54.1365 123.863 82.7312 C.3 0 **** 0
19537 C 56.2444 126.378 105.58 C.3 0 **** -0.053
19538 C 56.5764 126.393 104.081 C.3 0 **** -0.159
19539 C 56.4278 127.78 106.175 C.3 0 **** -0.159
19540 O 50.7997 126.168 94.9669 O.3 0 **** -0.57
19541 C 56.1776 119.266 84.2479 C.3 0 **** -0.053
19542 C 56.6763 119.061 82.8139 C.3 0 **** -0.053
19543 C 55.6869 119.683 81.8121 C.3 0 **** 0
19544 C 55.4406 121.208 82.0335 C.3 0 **** 0
19545 C 54.6456 122.022 81.0276 C.3 0 **** 0
19546 C 54.5629 121.482 79.6301 C.3 0 **** 0
19547 C 55.3577 120.188 79.3187 C.3 0 **** 0
19548 C 56.2054 119.458 80.3876 C.3 0 **** -0.053
19549 C 55.4766 119.732 77.871 C.3 0 **** -0.053
19550 C 54.9928 120.692 76.7621 C.3 0 **** -0.053
19551 C 54.0072 121.833 77.1639 C.3 0 **** 0
19552 C 54.3644 122.527 78.5049 C.3 0 **** 0
19553 C 53.2818 123.596 78.9232 C.3 0 **** 0
19554 C 53.6825 124.275 80.2873 C.3 0 **** 0
19555 C 53.766 123.219 81.4077 C.3 0 **** 0
19556 C 53.1611 124.664 77.7895 C.3 0 **** 0
19557 C 52.7713 123.932 76.4515 C.3 0 **** -0.053
19558 C 53.817 122.875 76.047 C.3 0 **** -0.053
19559 C 53.1465 126.088 82.0298 C.3 0 **** -0.053
19560 C 52.5906 125.325 80.7433 C.3 0 **** 0
19561 C 52.0463 125.737 78.1824 C.3 0 **** 0.02
19562 C 52.3239 126.369 79.5918 C.3 0 **** 0
19563 C 51.4021 127.509 80.0862 C.3 0 **** -0.106
19564 C 50.3812 127.826 79.0299 C.3 0 **** -0.106
19565 C 51.0642 128.018 77.6805 C.3 0 **** -0.086
19566 C 51.8602 126.87 77.1772 C.2 0 **** 0.379
19567 O 52.2408 126.852 76.0192 O.2 0 **** -0.419
19568 H 60.4334 122.247 107.587 H 0 **** 0.053
19569 H 59.4422 121.087 106.708 H 0 **** 0.053
19570 H 59.1336 122.034 109.568 H 0 **** 0.053
19571 H 57.9298 121.359 108.482 H 0 **** 0.053
19572 H 59.989 119.905 110.212 H 0 **** 0.053
19573 H 59.3693 117.773 109.13 H 0 **** 0.053
19574 H 60.345 118.75 106.655 H 0 **** 0.053
19575 H 61.3445 118.344 108.047 H 0 **** 0.053
19576 H 58.0739 119.328 106.892 H 0 **** 0.053
19577 H 56.3307 119.856 108.368 H 0 **** 0.053
19578 H 57.2424 117.547 110.112 H 0 **** 0.053
19579 H 55.9026 118.633 110.496 H 0 **** 0.053
19580 H 58.2332 119.227 111.537 H 0 **** 0.053
19581 H 57.3456 120.539 110.77 H 0 **** 0.053
19582 H 54.5866 117.297 106.46 H 0 **** 0.053
19583 H 56.3488 115.866 106.579 H 0 **** 0.053
19584 H 58.8779 117.083 106.355 H 0 **** 0.053
19585 H 58.0919 116.434 107.801 H 0 **** 0.053
19586 H 56.3184 119.815 106.232 H 0 **** 0.053
19587 H 57.5412 116.712 100.829 H 0 **** 0.053
19588 H 58.6607 117.226 102.119 H 0 **** 0.053
19589 H 58.2047 114.768 102.39 H 0 **** 0.053
19590 H 56.4653 115.061 102.231 H 0 **** 0.053
19591 H 57.4486 114.715 104.692 H 0 **** 0.1268
19592 H 55.3233 121.809 105.957 H 0 **** 0.053
19593 H 51.0439 119.949 106.39 H 0 **** 0.053
19594 H 51.5401 120.357 108.073 H 0 **** 0.053
19595 H 53.0458 118.526 107.25 H 0 **** 0.1268
19596 H 49.9748 122.252 107.073 H 0 **** 0.053
19597 H 51.1689 123.123 108.066 H 0 **** 0.053
19598 H 50.1946 124.752 106.468 H 0 **** 0.053
19599 H 50.5201 123.661 105.105 H 0 **** 0.053
19600 H 55.4738 123.853 106.428 H 0 **** 0.053
19601 H 55.148 124.039 104.705 H 0 **** 0.053
19602 H 54.6282 126.028 106.956 H 0 **** 0.053
19603 H 53.7979 126.164 104.01 H 0 **** 0.053
19604 H 53.77 127.567 105.084 H 0 **** 0.053
19605 H 51.5393 126.296 104.893 H 0 **** 0.053
19606 H 52.131 126.58 106.551 H 0 **** 0.053
19607 H 53.1271 123.041 103.647 H 0 **** 0.053
19608 H 52.5086 124.683 98.5105 H 0 **** 0.053
19609 H 52.3098 125.245 96.2364 H 0 **** 0.053
19610 H 56.6575 118.421 97.9338 H 0 **** 0.053
19611 H 52.9409 126.971 91.0619 H 0 **** 0.053
19612 H 52.698 127.258 93.3496 H 0 **** 0.053
19613 H 50.1736 125.572 93.1109 H 0 **** 0.053
19614 H 49.7764 128.003 92.9223 H 0 **** 0.053
19615 H 50.9498 128.685 94.0735 H 0 **** 0.053
19616 H 52.3272 129.438 92.013 H 0 **** 0.053
19617 H 50.7938 130.303 92.1889 H 0 **** 0.053
19618 H 49.7322 129.088 90.4659 H 0 **** 0.053
19619 H 49.9426 126.848 90.7306 H 0 **** 0.053
19620 H 52.2971 126.962 88.81 H 0 **** 0.053
19621 H 50.9503 125.797 88.8259 H 0 **** 0.053
19622 H 49.4197 127.704 88.1966 H 0 **** 0.053
19623 H 50.6539 127.466 86.9612 H 0 **** 0.053
19624 H 50.1383 129.945 88.0193 H 0 **** 0.053
19625 H 51.7448 129.518 87.4482 H 0 **** 0.053
19626 H 52.4848 129.29 89.5792 H 0 **** 0.353
19627 H 56.5104 115.803 94.533 H 0 **** 0.053
19628 H 58.2088 116.114 96.3221 H 0 **** 0.053
19629 H 59.0563 118.781 95.1535 H 0 **** 0.053
19630 H 59.9132 117.728 96.263 H 0 **** 0.053
19631 H 61.1802 117.427 94.2643 H 0 **** 0.053
19632 H 59.7728 117.644 93.2154 H 0 **** 0.053
19633 H 60.214 115.19 95.0048 H 0 **** 0.053
19634 H 60.5962 115.213 93.2705 H 0 **** 0.053
19635 H 58.2479 114.211 94.0648 H 0 **** 0.053
19636 H 58.286 115.266 92.6349 H 0 **** 0.053
19637 H 56.9856 118.118 91.1285 H 0 **** 0.053
19638 H 56.7223 118.743 88.7893 H 0 **** 0.053
19639 H 52.938 125.143 89.4934 H 0 **** 0.053
19640 H 52.3214 125.405 87.0982 H 0 **** 0.053
19641 H 52.3347 124.085 85.214 H 0 **** 0.053
19642 H 54.8283 125.725 84.4541 H 0 **** 0.053
19643 H 52.008 126.728 85.0263 H 0 **** 0.053
19644 H 53.1976 127.691 84.1193 H 0 **** 0.053
19645 H 53.005 127.935 86.8121 H 0 **** 0.053
19646 H 54.5567 128.103 85.9789 H 0 **** 0.053
19647 H 54.4261 126.514 88.0956 H 0 **** 0.053
19648 H 55.2924 125.899 86.684 H 0 **** 0.053
19649 H 56.9751 125.715 106.08 H 0 **** 0.053
19650 H 57.6252 126.687 103.914 H 0 **** 0.053
19651 H 55.9377 127.115 103.545 H 0 **** 0.053
19652 H 56.4309 125.408 103.61 H 0 **** 0.053
19653 H 56.2496 127.778 107.262 H 0 **** 0.053
19654 H 55.7254 128.496 105.72 H 0 **** 0.053
19655 H 57.4491 128.153 106.003 H 0 **** 0.053
19656 H 50.4112 125.385 95.351 H 0 **** 0.41
19657 H 56.7542 118.77 85.0788 H 0 **** 0.053
19658 H 56.8833 117.975 82.6 H 0 **** 0.053
19659 H 56.3999 118.38 80.133 H 0 **** 0.053
19660 H 55.9815 118.762 77.6329 H 0 **** 0.053
19661 H 54.8884 120.257 75.7371 H 0 **** 0.053
19662 H 52.61 124.645 75.5991 H 0 **** 0.053
19663 H 53.5959 122.387 75.0698 H 0 **** 0.053
19664 H 52.4372 126.946 82.3168 H 0 **** 0.053
19665 H 50.918 127.251 81.0446 H 0 **** 0.053
19666 H 52.087 128.336 80.2679 H 0 **** 0.053
19667 H 49.8304 128.725 79.3018 H 0 **** 0.053
19668 H 49.6444 126.999 78.9769 H 0 **** 0.053
19669 H 51.798 128.827 77.7232 H 0 **** 0.053
19670 H 50.3936 128.185 76.8406 H 0 **** 0.053
19671 C 50.0361 107.536 14.4817 C.3 0 **** 0.054
19672 C 50.3313 107.773 12.9725 C.3 0 **** -0.106
19673 C 51.7304 108.419 12.7707 C.3 0 **** -0.053
19674 C 51.9478 109.472 13.8834 C.3 0 **** -0.053
19675 C 51.8251 108.802 15.285 C.3 0 **** 0.054
19676 O 51.2379 107.51 15.2339 O.3 0 **** -0.32
19677 C 50.9501 110.658 13.7285 C.3 0 **** -0.053
19678 C 50.6731 111.025 12.2206 C.3 0 **** 0.107
19679 C 51.8134 110.537 11.3353 C.3 0 **** -0.106
19680 C 51.9391 109.004 11.3519 C.3 0 **** -0.106
19681 O 50.5196 112.427 11.9748 O.3 0 **** -0.32
19682 C 49.73 113.029 12.9886 C.3 0 **** 0.107
19683 C 50.6276 113.172 14.2467 C.3 0 **** -0.053
19684 C 51.4538 111.887 14.5114 C.3 0 **** -0.106
19685 C 49.9133 113.616 15.4973 C.2 0 **** 0
19686 C 48.4814 113.124 15.6534 C.3 0 **** 0
19687 C 47.6774 112.998 14.36 C.3 0 **** 0
19688 C 48.3826 112.337 13.1822 C.3 0 **** -0.053
19689 C 46.2619 112.49 14.5485 C.3 0 **** 0
19690 C 45.5148 113.338 15.5721 C.3 0 **** 0
19691 C 46.346 113.358 16.9093 C.3 0 **** 0.16
19692 C 47.7433 113.906 16.7211 C.3 0 **** 0
19693 C 48.5214 114.092 18.0525 C.3 0 **** -0.106
19694 C 49.7148 114.953 17.6672 C.3 0 **** -0.106
19695 C 50.4472 114.436 16.4341 C.2 0 **** -0.1268
19696 O 45.7263 113.813 18.1325 O.3 0 **** -0.32
19697 C 44.4028 114.26 17.9315 C.3 0 **** 0.16
19698 C 43.4694 113.32 17.0987 C.3 0 **** 0
19699 C 44.0903 112.764 15.7922 C.3 0 **** 0
19700 C 47.4813 112.388 11.9758 C.2 0 **** 0
19701 C 46.259 111.532 12.1532 C.3 0 **** -0.053
19702 C 45.4627 112.298 13.2477 C.3 0 **** 0
19703 C 45.3422 111.365 10.9616 C.2 0 **** 0
19704 C 45.4659 112.246 9.9343 C.2 0 **** 0
19705 C 46.5801 113.278 9.83548 C.3 0 **** -0.106
19706 C 47.6346 113.187 10.9262 C.2 0 **** -0.1268
19707 C 44.6049 112.121 8.69844 C.3 0 **** -0.106
19708 C 43.2247 111.618 9.09562 C.3 0 **** -0.106
19709 C 43.3773 110.425 10.0224 C.2 0 **** 0
19710 C 44.4301 110.343 10.8989 C.2 0 **** 0
19711 C 44.5161 109.163 11.8497 C.3 0 **** -0.106
19712 C 43.6429 107.984 11.4457 C.3 0 **** -0.053
19713 C 42.2139 108.479 11.1647 C.3 0 **** -0.106
19714 C 42.2292 109.439 9.96985 C.3 0 **** -0.106
19715 C 43.3131 112.771 14.4697 C.3 0 **** 0.147
19716 C 44.0025 111.83 13.4923 C.3 0 **** -0.053
19717 C 42.0211 113.804 16.9653 C.3 0 **** 0
19718 C 41.0828 112.927 16.1263 C.3 0 **** 0.147
19719 S 41.5571 112.309 14.5293 S.3 0 **** -0.294
19720 C 39.6436 113.363 16.1202 C.3 0 **** -0.053
19721 C 39.1597 113.492 17.5707 C.3 0 **** 0
19722 C 40.0582 114.482 18.4057 C.3 0 **** 0
19723 C 41.5152 113.976 18.4248 C.3 0 **** 0
19724 C 39.5116 114.562 19.8237 C.3 0 **** 0
19725 C 38.0809 115.06 19.7862 C.3 0 **** 0
19726 C 37.118 114.146 18.9187 C.3 0 **** 0
19727 C 37.6972 114.029 17.4615 C.3 0 **** -0.053
19728 C 35.7324 114.849 18.8716 C.3 0 **** 0
19729 C 35.1562 114.779 20.2688 C.3 0 **** 0.16
19730 C 36.0663 115.414 21.3243 C.3 0 **** 0
19731 C 37.554 115.477 21.1314 C.3 0 **** 0
19732 C 42.466 114.804 19.3301 C.3 0 **** 0
19733 C 43.8979 114.279 19.3515 C.3 0 **** -0.053
19734 C 40.4343 115.155 20.9115 C.3 0 **** 0
19735 C 41.894 115.493 20.5987 C.3 0 **** 0
19736 C 38.4579 115.584 22.3597 C.3 0 **** 0
19737 C 39.8431 116.116 21.9468 C.3 0 **** 0
19738 C 35.4725 116.058 22.578 C.3 0 **** 0
19739 C 36.4962 116.103 23.7566 C.3 0 **** 0
19740 C 37.8945 116.618 23.3682 C.3 0 **** 0
19741 O 33.8304 115.26 20.2261 O.3 0 **** -0.32
19742 C 33.0926 114.091 19.8738 C.3 0 **** 0.107
19743 C 33.6741 113.454 18.5702 C.3 0 **** -0.053
19744 C 34.6185 114.436 17.8794 C.3 0 **** 0.107
19745 C 32.5417 113.027 17.6246 C.3 0 **** -0.106
19746 C 31.3838 112.414 18.433 C.3 0 **** -0.106
19747 C 30.6726 113.499 19.2626 C.3 0 **** 0.134
19748 C 31.6647 114.583 19.7633 C.3 0 **** -0.053
19749 C 31.2175 115.211 21.1065 C.3 0 **** -0.106
19750 C 29.6976 115.307 21.1512 C.3 0 **** -0.106
19751 C 29.0512 113.895 21.012 C.3 0 **** 0.081
19752 N 29.9012 112.913 20.3405 N.3 0 **** -0.727
19753 C 42.7713 115.597 21.8751 C.3 0 **** 0.16
19754 C 42.1599 116.629 22.8093 C.3 0 **** 0.16
19755 C 40.8012 116.141 23.2222 C.3 0 **** 0
19756 O 42.9331 116.923 23.953 O.3 0 **** -0.32
19757 C 44.2765 117.194 23.5682 C.3 0 **** 0.107
19758 C 44.8322 116.001 22.8542 C.3 0 **** 0.107
19759 O 44.1374 115.887 21.6236 O.3 0 **** -0.32
19760 C 44.7201 114.705 23.6985 C.3 0 **** -0.106
19761 C 44.7416 115.005 25.2249 C.3 0 **** -0.106
19762 C 45.6014 116.253 25.5077 C.3 0 **** -0.106
19763 C 45.0171 117.529 24.8383 C.3 0 **** -0.106
19764 C 38.8188 116.698 24.6639 C.3 0 **** 0
19765 C 40.2371 117.191 24.2339 C.3 0 **** -0.053
19766 C 35.9519 117.053 24.8366 C.3 0 **** 0
19767 C 36.9107 117.19 26.0369 C.3 0 **** 0.16
19768 C 38.2702 117.662 25.6998 C.3 0 **** -0.053
19769 C 34.5621 116.447 25.2791 C.3 0 **** 0
19770 C 33.5742 116.368 24.0445 C.3 0 **** 0
19771 C 34.1773 115.35 23.0637 C.3 0 **** -0.053
19772 O 36.4448 117.953 27.1012 O.3 0 **** -0.32
19773 C 35.1069 117.57 27.3997 C.3 0 **** 0.16
19774 C 34.0528 117.539 26.2142 C.3 0 **** 0
19775 C 32.1119 115.971 24.3905 C.3 0 **** -0.053
19776 C 31.6188 116.826 25.5553 C.3 0 **** -0.053
19777 C 32.682 117.047 26.6958 C.3 0 **** 0
19778 C 30.509 116.137 26.2726 C.3 0 **** -0.053
19779 C 29.588 115.449 25.2998 C.3 0 **** -0.106
19780 C 30.3494 114.247 24.67 C.3 0 **** -0.106
19781 C 31.8756 114.471 24.6728 C.3 0 **** -0.106
19782 C 32.1635 118.071 27.6779 C.3 0 **** 0
19783 C 33.1654 118.389 28.8274 C.3 0 **** 0
19784 C 34.6444 118.517 28.4726 C.3 0 **** 0
19785 C 29.8494 117.283 27.0355 C.3 0 **** 0
19786 C 30.779 117.726 28.1803 C.3 0 **** 0
19787 C 43.7211 106.829 12.4768 C.3 0 **** -0.053
19788 C 42.9635 107.129 13.7784 C.3 0 **** -0.159
19789 C 43.2285 105.508 11.8727 C.3 0 **** -0.159
19790 O 35.0701 113.914 16.6372 O.3 0 **** -0.57
19791 C 35.6543 119.272 29.3825 C.3 0 **** -0.053
19792 C 35.1572 119.603 30.793 C.3 0 **** -0.053
19793 C 33.7003 120.098 30.7409 C.3 0 **** 0
19794 C 32.7094 119.077 30.1001 C.3 0 **** 0
19795 C 31.2111 119.322 30.1338 C.3 0 **** 0
19796 C 30.6971 120.235 31.2077 C.3 0 **** 0
19797 C 31.7264 120.791 32.2234 C.3 0 **** 0
19798 C 33.2307 120.433 32.1603 C.3 0 **** -0.053
19799 C 31.2163 121.537 33.4488 C.3 0 **** -0.053
19800 C 29.6982 121.523 33.7325 C.3 0 **** -0.053
19801 C 28.739 121.165 32.5554 C.3 0 **** 0
19802 C 29.2404 119.992 31.6726 C.3 0 **** 0
19803 C 28.2948 119.738 30.4342 C.3 0 **** 0
19804 C 28.8395 118.541 29.5666 C.3 0 **** 0
19805 C 30.2491 118.866 29.0309 C.3 0 **** 0
19806 C 26.8535 119.433 30.9527 C.3 0 **** 0
19807 C 26.3644 120.652 31.8203 C.3 0 **** -0.053
19808 C 27.2935 120.914 33.0214 C.3 0 **** -0.053
19809 C 28.4373 116.97 27.5721 C.3 0 **** -0.053
19810 C 27.9261 118.295 28.2989 C.3 0 **** 0
19811 C 25.8764 119.206 29.7114 C.3 0 **** 0.02
19812 C 26.4239 118.102 28.7395 C.3 0 **** 0
19813 C 25.5488 117.674 27.5372 C.3 0 **** -0.106
19814 C 24.2499 118.428 27.5678 C.3 0 **** -0.106
19815 C 23.6212 118.336 28.953 C.3 0 **** -0.086
19816 C 24.4391 118.849 30.0805 C.2 0 **** 0.379
19817 O 23.9285 119.026 31.1735 O.2 0 **** -0.419
19818 H 49.5445 106.566 14.6382 H 0 **** 0.053
19819 H 49.3445 108.301 14.8679 H 0 **** 0.053
19820 H 50.2874 106.83 12.3937 H 0 **** 0.053
19821 H 49.5468 108.416 12.5316 H 0 **** 0.053
19822 H 52.4702 107.618 12.9345 H 0 **** 0.053
19823 H 52.9619 109.895 13.7585 H 0 **** 0.053
19824 H 51.2701 109.448 15.9878 H 0 **** 0.053
19825 H 52.8199 108.657 15.7204 H 0 **** 0.053
19826 H 50.0097 110.33 14.2044 H 0 **** 0.053
19827 H 49.7595 110.503 11.8803 H 0 **** 0.053
19828 H 52.745 111.011 11.6982 H 0 **** 0.053
19829 H 51.653 110.913 10.3127 H 0 **** 0.053
19830 H 52.9262 108.717 10.9641 H 0 **** 0.053
19831 H 51.1981 108.576 10.662 H 0 **** 0.053
19832 H 49.5354 114.05 12.6543 H 0 **** 0.053
19833 H 51.3476 113.967 14.0244 H 0 **** 0.053
19834 H 51.54 111.637 15.5916 H 0 **** 0.053
19835 H 52.4831 112.084 14.1637 H 0 **** 0.053
19836 H 48.5035 111.271 13.429 H 0 **** 0.053
19837 H 47.8808 114.604 18.7975 H 0 **** 0.053
19838 H 48.8127 113.114 18.4898 H 0 **** 0.053
19839 H 50.4031 115.062 18.5089 H 0 **** 0.053
19840 H 49.3336 115.961 17.4208 H 0 **** 0.053
19841 H 51.4765 114.772 16.3551 H 0 **** 0.1268
19842 H 46.5684 110.537 12.5564 H 0 **** 0.053
19843 H 46.1439 114.321 9.82439 H 0 **** 0.053
19844 H 47.1022 113.152 8.84467 H 0 **** 0.053
19845 H 48.5005 113.833 10.8131 H 0 **** 0.1268
19846 H 44.5438 113.083 8.14468 H 0 **** 0.053
19847 H 45.0947 111.394 8.02634 H 0 **** 0.053
19848 H 42.6198 111.363 8.20314 H 0 **** 0.053
19849 H 42.6756 112.414 9.63395 H 0 **** 0.053
19850 H 45.5603 108.819 11.886 H 0 **** 0.053
19851 H 44.2601 109.472 12.8818 H 0 **** 0.053
19852 H 44.0525 107.59 10.4927 H 0 **** 0.053
19853 H 41.8283 109.004 12.0538 H 0 **** 0.053
19854 H 41.5254 107.646 10.9637 H 0 **** 0.053
19855 H 41.2546 109.977 9.90358 H 0 **** 0.053
19856 H 42.3238 108.848 9.03147 H 0 **** 0.053
19857 H 43.3838 111.776 12.5315 H 0 **** 0.053
19858 H 38.9406 112.729 15.5011 H 0 **** 0.053
19859 H 37.12 113.224 16.9037 H 0 **** 0.053
19860 H 44.6178 114.903 19.9572 H 0 **** 0.053
19861 H 33.1625 113.372 20.7073 H 0 **** 0.053
19862 H 34.2313 112.531 18.8296 H 0 **** 0.053
19863 H 34.0763 115.354 17.6993 H 0 **** 0.053
19864 H 32.1709 113.914 17.0661 H 0 **** 0.053
19865 H 32.9325 112.319 16.8585 H 0 **** 0.053
19866 H 31.8168 111.648 19.0981 H 0 **** 0.053
19867 H 30.66 111.897 17.7829 H 0 **** 0.053
19868 H 29.9607 114.003 18.5894 H 0 **** 0.053
19869 H 31.7016 115.392 19.0057 H 0 **** 0.053
19870 H 31.5319 114.539 21.9186 H 0 **** 0.053
19871 H 31.7106 116.186 21.2668 H 0 **** 0.053
19872 H 29.3816 115.962 20.3192 H 0 **** 0.053
19873 H 29.3535 115.805 22.0738 H 0 **** 0.053
19874 H 28.1074 113.978 20.4492 H 0 **** 0.053
19875 H 28.7707 113.505 22.0063 H 0 **** 0.053
19876 H 30.5287 112.493 20.9969 H 0 **** 0.353
19877 H 44.2564 118.034 22.8743 H 0 **** 0.053
19878 H 45.8818 116.169 22.6272 H 0 **** 0.053
19879 H 43.7911 114.14 23.4714 H 0 **** 0.053
19880 H 45.5385 113.996 23.4504 H 0 **** 0.053
19881 H 45.1114 114.128 25.7938 H 0 **** 0.053
19882 H 43.7084 115.184 25.5847 H 0 **** 0.053
19883 H 46.6066 116.066 25.0917 H 0 **** 0.053
19884 H 45.7253 116.41 26.5946 H 0 **** 0.053
19885 H 45.8124 118.282 24.6875 H 0 **** 0.053
19886 H 44.2735 117.991 25.5277 H 0 **** 0.053
19887 H 40.8953 117.249 25.168 H 0 **** 0.053
19888 H 38.964 117.759 26.5608 H 0 **** 0.053
19889 H 33.4366 115.223 22.2244 H 0 **** 0.053
19890 H 31.5534 116.227 23.5007 H 0 **** 0.053
19891 H 31.3086 117.81 25.1517 H 0 **** 0.053
19892 H 30.8831 115.381 26.9955 H 0 **** 0.053
19893 H 29.2947 116.177 24.5193 H 0 **** 0.053
19894 H 28.6457 115.074 25.7553 H 0 **** 0.053
19895 H 30.008 114.095 23.6264 H 0 **** 0.053
19896 H 30.094 113.318 25.2136 H 0 **** 0.053
19897 H 32.3572 113.813 23.9269 H 0 **** 0.053
19898 H 32.3095 114.212 25.6473 H 0 **** 0.053
19899 H 44.7888 106.69 12.733 H 0 **** 0.053
19900 H 43.1396 106.339 14.5258 H 0 **** 0.053
19901 H 41.8776 107.182 13.5962 H 0 **** 0.053
19902 H 43.2714 108.086 14.2308 H 0 **** 0.053
19903 H 43.8 105.246 10.9683 H 0 **** 0.053
19904 H 42.1659 105.576 11.5911 H 0 **** 0.053
19905 H 43.3361 104.679 12.5891 H 0 **** 0.053
19906 H 35.6486 114.581 16.2734 H 0 **** 0.41
19907 H 36.7383 118.989 29.2653 H 0 **** 0.053
19908 H 35.8424 120.329 31.3122 H 0 **** 0.053
19909 H 33.8813 121.176 32.6974 H 0 **** 0.053
19910 H 31.9446 122.011 34.1548 H 0 **** 0.053
19911 H 29.3276 122.249 34.4983 H 0 **** 0.053
19912 H 25.3087 120.529 32.183 H 0 **** 0.053
19913 H 26.9342 121.733 33.6871 H 0 **** 0.053
19914 H 27.7211 116.687 26.7179 H 0 **** 0.053
19915 H 26.0754 117.825 26.5783 H 0 **** 0.053
19916 H 25.4163 116.603 27.6817 H 0 **** 0.053
19917 H 23.5683 118.027 26.8213 H 0 **** 0.053
19918 H 24.4384 119.486 27.2956 H 0 **** 0.053
19919 H 23.4393 117.296 29.2347 H 0 **** 0.053
19920 H 22.7071 118.91 29.0869 H 0 **** 0.053
19921 C 77.307 97.1791 52.7957 C.3 0 **** 0.054
19922 C 77.1045 96.726 54.2705 C.3 0 **** -0.106
19923 C 76.808 95.2028 54.3523 C.3 0 **** -0.053
19924 C 75.8697 94.8239 53.1811 C.3 0 **** -0.053
19925 C 76.5304 95.2047 51.8221 C.3 0 **** 0.054
19926 O 77.6419 96.0767 51.969 O.3 0 **** -0.32
19927 C 74.4754 95.4976 53.346 C.3 0 **** -0.053
19928 C 74.0097 95.5681 54.8504 C.3 0 **** 0.107
19929 C 74.7314 94.5145 55.6818 C.3 0 **** -0.106
19930 C 76.2491 94.7576 55.7269 C.3 0 **** -0.106
19931 O 72.6051 95.3657 55.0413 O.3 0 **** -0.32
19932 C 71.8603 96.0624 54.0545 C.3 0 **** 0.107
19933 C 71.9733 95.2516 52.7359 C.3 0 **** -0.053
19934 C 73.4259 94.7756 52.4772 C.3 0 **** -0.106
19935 C 71.4062 95.9298 51.515 C.2 0 **** 0
19936 C 71.5448 97.4451 51.4741 C.3 0 **** 0
19937 C 71.4371 98.1586 52.8212 C.3 0 **** 0
19938 C 72.2144 97.546 53.9798 C.3 0 **** -0.053
19939 C 71.5965 99.6642 52.7474 C.3 0 **** 0
19940 C 70.6234 100.262 51.737 C.3 0 **** 0
19941 C 70.8417 99.5503 50.3494 C.3 0 **** 0.16
19942 C 70.6395 98.0528 50.422 C.3 0 **** 0
19943 C 70.6839 97.3528 49.0361 C.3 0 **** -0.106
19944 C 70.1235 95.9643 49.304 C.3 0 **** -0.106
19945 C 70.766 95.287 50.5095 C.2 0 **** -0.1268
19946 O 70.2865 100.132 49.1492 O.3 0 **** -0.32
19947 C 69.5289 101.293 49.4148 C.3 0 **** 0.16
19948 C 70.1936 102.36 50.3478 C.3 0 **** 0
19949 C 70.8444 101.794 51.6355 C.3 0 **** 0
19950 C 71.9144 98.3179 55.2383 C.2 0 **** 0
19951 C 72.457 99.7181 55.1785 C.3 0 **** -0.053
19952 C 71.5533 100.388 54.1042 C.3 0 **** 0
19953 C 72.3629 100.559 56.4321 C.2 0 **** 0
19954 C 71.5048 100.156 57.405 C.2 0 **** 0
19955 C 70.7719 98.8227 57.3886 C.3 0 **** -0.106
19956 C 71.1451 97.9024 56.2382 C.2 0 **** -0.1268
19957 C 71.3807 100.928 58.6955 C.3 0 **** -0.106
19958 C 71.5559 102.412 58.4184 C.3 0 **** -0.106
19959 C 72.7785 102.615 57.54 C.2 0 **** 0
19960 C 73.1356 101.679 56.6015 C.2 0 **** 0
19961 C 74.328 101.946 55.7021 C.3 0 **** -0.106
19962 C 75.2512 103.042 56.2144 C.3 0 **** -0.053
19963 C 74.4197 104.288 56.5644 C.3 0 **** -0.106
19964 C 73.4581 103.957 57.7112 C.3 0 **** -0.106
19965 C 70.6134 102.448 53.0038 C.3 0 **** 0.147
19966 C 71.6638 101.932 53.9761 C.3 0 **** -0.053
19967 C 69.373 103.638 50.5522 C.3 0 **** 0
19968 C 69.9741 104.693 51.489 C.3 0 **** 0.147
19969 S 70.6435 104.263 53.0778 S.3 0 **** -0.294
19970 C 69.2059 105.983 51.5682 C.3 0 **** -0.053
19971 C 69.0067 106.528 50.1475 C.3 0 **** 0
19972 C 68.2845 105.484 49.2123 C.3 0 **** 0
19973 C 69.1258 104.194 49.1221 C.3 0 **** 0
19974 C 68.1167 106.099 47.8303 C.3 0 **** 0
19975 C 67.2887 107.363 47.9373 C.3 0 **** 0
19976 C 67.9206 108.45 48.9057 C.3 0 **** 0
19977 C 68.1314 107.809 50.3264 C.3 0 **** -0.053
19978 C 66.9045 109.621 49.0102 C.3 0 **** 0
19979 C 66.8742 110.299 47.6575 C.3 0 **** 0.16
19980 C 66.5056 109.344 46.5181 C.3 0 **** 0
19981 C 66.7968 107.874 46.6113 C.3 0 **** 0
19982 C 68.5764 103.143 48.1209 C.3 0 **** 0
19983 C 69.4305 101.882 48.031 C.3 0 **** -0.053
19984 C 67.7938 105.144 46.6595 C.3 0 **** 0
19985 C 67.8074 103.627 46.8618 C.3 0 **** 0
19986 C 66.9447 107.063 45.3238 C.3 0 **** 0
19987 C 66.7491 105.565 45.622 C.3 0 **** 0
19988 C 65.7757 109.858 45.2771 C.3 0 **** 0
19989 C 66.0101 108.943 44.0343 C.3 0 **** 0
19990 C 65.8352 107.437 44.3077 C.3 0 **** 0
19991 O 66.0877 111.465 47.7637 O.3 0 **** -0.32
19992 C 67.0356 112.431 48.2156 C.3 0 **** 0.107
19993 C 67.7553 111.924 49.5065 C.3 0 **** -0.053
19994 C 67.0092 110.725 50.0898 C.3 0 **** 0.107
19995 C 67.871 113.052 50.5415 C.3 0 **** -0.106
19996 C 68.2122 114.379 49.838 C.3 0 **** -0.106
19997 C 67.0122 114.871 49.0073 C.3 0 **** 0.134
19998 C 66.2125 113.689 48.3954 C.3 0 **** -0.053
19999 C 65.5339 114.072 47.0566 C.3 0 **** -0.106
20000 C 65.0775 115.524 47.1054 C.3 0 **** -0.106
20001 C 66.2892 116.475 47.3492 C.3 0 **** 0.081
20002 N 67.4266 115.836 48.0086 N.3 0 **** -0.727
20003 C 67.9536 102.846 45.5281 C.3 0 **** 0.16
20004 C 66.8319 103.262 44.5894 C.3 0 **** 0.16
20005 C 66.9916 104.724 44.2877 C.3 0 **** 0
20006 O 66.7648 102.527 43.3859 O.3 0 **** -0.32
20007 C 66.8128 101.134 43.6707 C.3 0 **** 0.107
20008 C 68.084 100.826 44.4007 C.3 0 **** 0.107
20009 O 67.9922 101.436 45.6775 O.3 0 **** -0.32
20010 C 69.3388 101.304 43.6251 C.3 0 **** -0.106
20011 C 69.0966 101.324 42.0884 C.3 0 **** -0.106
20012 C 68.0999 100.216 41.6944 C.3 0 **** -0.106
20013 C 66.7023 100.43 42.3416 C.3 0 **** -0.106
20014 C 66.0172 106.618 42.9529 C.3 0 **** 0
20015 C 65.866 105.096 43.2678 C.3 0 **** -0.053
20016 C 64.9889 109.324 42.9502 C.3 0 **** 0
20017 C 65.1208 108.451 41.6853 C.3 0 **** 0.16
20018 C 64.9783 106.996 41.9125 C.3 0 **** -0.053
20019 C 65.2566 110.847 42.6258 C.3 0 **** 0
20020 C 65.0612 111.732 43.9236 C.3 0 **** 0
20021 C 66.1647 111.317 44.9087 C.3 0 **** -0.053
20022 O 64.3001 108.799 40.6181 O.3 0 **** -0.32
20023 C 64.358 110.208 40.4255 C.3 0 **** 0.16
20024 C 64.1008 111.149 41.6772 C.3 0 **** 0
20025 C 65.1056 113.268 43.691 C.3 0 **** -0.053
20026 C 64.1902 113.628 42.5228 C.3 0 **** -0.053
20027 C 64.2632 112.629 41.3074 C.3 0 **** 0
20028 C 64.6137 114.919 41.9105 C.3 0 **** -0.053
20029 C 65.0321 115.903 42.9709 C.3 0 **** -0.106
20030 C 66.3629 115.404 43.6041 C.3 0 **** -0.106
20031 C 66.5119 113.873 43.4928 C.3 0 **** -0.106
20032 C 63.1738 112.961 40.3152 C.3 0 **** 0
20033 C 63.1372 111.999 39.0905 C.3 0 **** 0
20034 C 63.3605 110.51 39.3413 C.3 0 **** 0
20035 C 63.3654 115.342 41.1404 C.3 0 **** 0
20036 C 63.1913 114.42 39.9193 C.3 0 **** 0
20037 C 76.4206 103.317 55.2337 C.3 0 **** -0.053
20038 C 75.9842 104.075 53.9713 C.3 0 **** -0.159
20039 C 77.5662 104.063 55.9275 C.3 0 **** -0.159
20040 O 67.5889 110.321 51.3228 O.3 0 **** -0.57
20041 C 62.8939 109.42 38.3366 C.3 0 **** -0.053
20042 C 62.4934 109.926 36.9478 C.3 0 **** -0.053
20043 C 61.6644 111.217 37.0697 C.3 0 **** 0
20044 C 62.3979 112.371 37.8191 C.3 0 **** 0
20045 C 61.8009 113.766 37.8723 C.3 0 **** 0
20046 C 60.825 114.127 36.7916 C.3 0 **** 0
20047 C 60.5563 113.071 35.6906 C.3 0 **** 0
20048 C 61.2669 111.696 35.6705 C.3 0 **** -0.053
20049 C 59.752 113.48 34.4645 C.3 0 **** -0.053
20050 C 59.4053 114.974 34.2824 C.3 0 **** -0.053
20051 C 59.4899 115.902 35.5333 C.3 0 **** 0
20052 C 60.723 115.63 36.4339 C.3 0 **** 0
20053 C 60.7072 116.515 37.7409 C.3 0 **** 0
20054 C 61.9746 116.208 38.6249 C.3 0 **** 0
20055 C 61.9825 114.726 39.0536 C.3 0 **** 0
20056 C 60.6728 118.022 37.3306 C.3 0 **** 0
20057 C 59.3971 118.27 36.4422 C.3 0 **** -0.053
20058 C 59.3995 117.396 35.1731 C.3 0 **** -0.053
20059 C 63.346 116.823 40.7105 C.3 0 **** -0.053
20060 C 61.9581 117.058 39.9583 C.3 0 **** 0
20061 C 60.6237 118.931 38.6414 C.3 0 **** 0.02
20062 C 61.7986 118.591 39.6246 C.3 0 **** 0
20063 C 61.9695 119.452 40.8991 C.3 0 **** -0.106
20064 C 60.9276 120.534 40.9198 C.3 0 **** -0.106
20065 C 60.9045 121.266 39.5828 C.3 0 **** -0.086
20066 C 60.6356 120.435 38.3826 C.2 0 **** 0.379
20067 O 60.3716 120.968 37.3179 O.2 0 **** -0.419
20068 H 78.1346 97.897 52.7155 H 0 **** 0.053
20069 H 76.41 97.696 52.4208 H 0 **** 0.053
20070 H 77.9928 96.95 54.8932 H 0 **** 0.053
20071 H 76.2799 97.301 54.7315 H 0 **** 0.053
20072 H 77.7667 94.688 54.1776 H 0 **** 0.053
20073 H 75.6993 93.7322 53.221 H 0 **** 0.053
20074 H 75.7908 95.6406 51.1281 H 0 **** 0.053
20075 H 76.9227 94.3076 51.3305 H 0 **** 0.053
20076 H 74.5815 96.5213 52.9471 H 0 **** 0.053
20077 H 74.2864 96.5518 55.2724 H 0 **** 0.053
20078 H 74.5053 93.5262 55.2385 H 0 **** 0.053
20079 H 74.2982 94.5054 56.6946 H 0 **** 0.053
20080 H 76.7531 93.841 56.0628 H 0 **** 0.053
20081 H 76.4669 95.5262 56.482 H 0 **** 0.053
20082 H 70.8134 95.984 54.3543 H 0 **** 0.053
20083 H 71.3676 94.3491 52.8751 H 0 **** 0.053
20084 H 73.7203 94.8308 51.4062 H 0 **** 0.053
20085 H 73.4711 93.7062 52.7486 H 0 **** 0.053
20086 H 73.2846 97.7 53.7745 H 0 **** 0.053
20087 H 70.0548 97.9067 48.3116 H 0 **** 0.053
20088 H 71.7151 97.3349 48.6259 H 0 **** 0.053
20089 H 70.2069 95.3334 48.4157 H 0 **** 0.053
20090 H 69.0467 96.0761 49.5288 H 0 **** 0.053
20091 H 70.685 94.2045 50.5069 H 0 **** 0.1268
20092 H 73.5081 99.6841 54.8022 H 0 **** 0.053
20093 H 69.6544 98.9951 57.3818 H 0 **** 0.053
20094 H 70.993 98.2762 58.3493 H 0 **** 0.053
20095 H 70.7232 96.9021 56.2665 H 0 **** 0.1268
20096 H 70.4201 100.717 59.2117 H 0 **** 0.053
20097 H 72.1852 100.567 59.3558 H 0 **** 0.053
20098 H 71.6345 102.99 59.3608 H 0 **** 0.053
20099 H 70.6682 102.799 57.8818 H 0 **** 0.053
20100 H 74.9137 101.019 55.6142 H 0 **** 0.053
20101 H 73.9965 102.197 54.6757 H 0 **** 0.053
20102 H 75.7044 102.669 57.1559 H 0 **** 0.053
20103 H 73.8438 104.602 55.6794 H 0 **** 0.053
20104 H 75.0569 105.138 56.8469 H 0 **** 0.053
20105 H 72.7006 104.769 57.8156 H 0 **** 0.053
20106 H 74.0277 103.937 58.6676 H 0 **** 0.053
20107 H 71.5402 102.473 54.9765 H 0 **** 0.053
20108 H 69.6352 106.769 52.2594 H 0 **** 0.053
20109 H 68.7576 108.518 50.9561 H 0 **** 0.053
20110 H 69.0143 101.081 47.3525 H 0 **** 0.053
20111 H 67.7741 112.596 47.413 H 0 **** 0.053
20112 H 68.7929 111.622 49.254 H 0 **** 0.053
20113 H 65.9833 111.02 50.2626 H 0 **** 0.053
20114 H 66.9053 113.16 51.082 H 0 **** 0.053
20115 H 68.6301 112.786 51.3122 H 0 **** 0.053
20116 H 69.0779 114.19 49.1819 H 0 **** 0.053
20117 H 68.5207 115.155 50.5562 H 0 **** 0.053
20118 H 66.3328 115.391 49.7016 H 0 **** 0.053
20119 H 65.414 113.406 49.1119 H 0 **** 0.053
20120 H 66.2849 113.987 46.2574 H 0 **** 0.053
20121 H 64.7106 113.374 46.821 H 0 **** 0.053
20122 H 64.3424 115.614 47.9259 H 0 **** 0.053
20123 H 64.5377 115.807 46.1854 H 0 **** 0.053
20124 H 65.9659 117.327 47.9681 H 0 **** 0.053
20125 H 66.6287 116.912 46.3942 H 0 **** 0.053
20126 H 68.0047 115.375 47.334 H 0 **** 0.353
20127 H 65.973 100.903 44.3256 H 0 **** 0.053
20128 H 68.1661 99.7529 44.5518 H 0 **** 0.053
20129 H 69.6574 102.321 43.9371 H 0 **** 0.053
20130 H 70.2155 100.661 43.8519 H 0 **** 0.053
20131 H 70.0527 101.216 41.5373 H 0 **** 0.053
20132 H 68.6849 102.309 41.7884 H 0 **** 0.053
20133 H 68.5106 99.2563 42.053 H 0 **** 0.053
20134 H 68.0077 100.139 40.5958 H 0 **** 0.053
20135 H 66.1578 99.4699 42.4066 H 0 **** 0.053
20136 H 66.0954 101.092 41.6814 H 0 **** 0.053
20137 H 65.9948 104.513 42.2916 H 0 **** 0.053
20138 H 65.0762 106.365 41.0041 H 0 **** 0.053
20139 H 66.0873 112.003 45.7989 H 0 **** 0.053
20140 H 64.6968 113.682 44.6025 H 0 **** 0.053
20141 H 63.1496 113.665 42.9004 H 0 **** 0.053
20142 H 65.4578 114.789 41.2001 H 0 **** 0.053
20143 H 64.2335 115.957 43.7348 H 0 **** 0.053
20144 H 65.1833 116.938 42.5943 H 0 **** 0.053
20145 H 66.3993 115.694 44.6734 H 0 **** 0.053
20146 H 67.2195 115.912 43.1208 H 0 **** 0.053
20147 H 67.2445 113.508 44.2352 H 0 **** 0.053
20148 H 66.8956 113.586 42.5052 H 0 **** 0.053
20149 H 76.8182 102.334 54.9157 H 0 **** 0.053
20150 H 76.8146 104.146 53.2508 H 0 **** 0.053
20151 H 75.6674 105.101 54.2206 H 0 **** 0.053
20152 H 75.143 103.583 53.4572 H 0 **** 0.053
20153 H 77.9324 103.505 56.8042 H 0 **** 0.053
20154 H 77.2378 105.055 56.2737 H 0 **** 0.053
20155 H 78.417 104.208 55.2441 H 0 **** 0.053
20156 H 67.0705 109.574 51.6177 H 0 **** 0.41
20157 H 63.4254 108.428 38.3959 H 0 **** 0.053
20158 H 61.9689 109.128 36.3528 H 0 **** 0.053
20159 H 60.717 110.929 35.0608 H 0 **** 0.053
20160 H 59.4822 112.713 33.6947 H 0 **** 0.053
20161 H 58.6344 115.217 33.5095 H 0 **** 0.053
20162 H 59.2729 119.348 36.1546 H 0 **** 0.053
20163 H 58.5379 117.598 34.4959 H 0 **** 0.053
20164 H 63.4247 117.522 41.6206 H 0 **** 0.053
20165 H 61.9219 118.834 41.8134 H 0 **** 0.053
20166 H 62.9809 119.845 40.8121 H 0 **** 0.053
20167 H 61.1346 121.235 41.7267 H 0 **** 0.053
20168 H 59.9375 120.082 41.1306 H 0 **** 0.053
20169 H 61.8782 121.711 39.3612 H 0 **** 0.053
20170 H 60.1318 122.025 39.4824 H 0 **** 0.053
20171 C 57.7469 194.792 70.9937 C.3 0 **** 0.054
20172 C 57.6651 195.601 72.3203 C.3 0 **** -0.106
20173 C 59.0025 196.338 72.6102 C.3 0 **** -0.053
20174 C 60.1709 195.398 72.2261 C.3 0 **** -0.053
20175 C 60.0576 194.99 70.7265 C.3 0 **** 0.054
20176 O 58.7867 195.284 70.1644 O.3 0 **** -0.32
20177 C 60.2087 194.15 73.1559 C.3 0 **** -0.053
20178 C 59.8142 194.489 74.644 C.3 0 **** 0.107
20179 C 60.028 195.971 74.9272 C.3 0 **** -0.106
20180 C 59.1155 196.859 74.0646 C.3 0 **** -0.106
20181 O 60.5548 193.761 75.6296 O.3 0 **** -0.32
20182 C 60.6975 192.402 75.2457 C.3 0 **** 0.107
20183 C 61.7846 192.349 74.1392 C.3 0 **** -0.053
20184 C 61.5946 193.477 73.0928 C.3 0 **** -0.106
20185 C 61.9462 191.012 73.4624 C.2 0 **** 0
20186 C 60.673 190.194 73.2984 C.3 0 **** 0
20187 C 59.6516 190.321 74.428 C.3 0 **** 0
20188 C 59.363 191.731 74.9291 C.3 0 **** -0.053
20189 C 58.3887 189.507 74.2258 C.3 0 **** 0
20190 C 58.7254 188.044 73.9598 C.3 0 **** 0
20191 C 59.7088 187.971 72.7323 C.3 0 **** 0.16
20192 C 60.9853 188.751 72.9588 C.3 0 **** 0
20193 C 62.0393 188.556 71.8346 C.3 0 **** -0.106
20194 C 63.3212 189.123 72.4256 C.3 0 **** -0.106
20195 C 63.1297 190.502 73.0457 C.2 0 **** -0.1268
20196 O 59.9354 186.708 72.0686 O.3 0 **** -0.32
20197 C 59.2487 185.642 72.6901 C.3 0 **** 0.16
20198 C 57.7385 185.886 73.02 C.3 0 **** 0
20199 C 57.4228 187.243 73.6978 C.3 0 **** 0
20200 C 58.4155 191.655 76.098 C.2 0 **** 0
20201 C 57.0559 191.165 75.6858 C.3 0 **** -0.053
20202 C 57.3257 189.676 75.3253 C.3 0 **** 0
20203 C 55.9592 191.185 76.7274 C.2 0 **** 0
20204 C 56.3213 191.303 78.0317 C.2 0 **** 0
20205 C 57.744 191.586 78.4915 C.3 0 **** -0.106
20206 C 58.7384 191.846 77.372 C.2 0 **** -0.1268
20207 C 55.2784 191.361 79.1238 C.3 0 **** -0.106
20208 C 54.1048 190.469 78.7464 C.3 0 **** -0.106
20209 C 53.7001 190.758 77.3113 C.2 0 **** 0
20210 C 54.6359 191.116 76.3735 C.2 0 **** 0
20211 C 54.2016 191.339 74.9372 C.3 0 **** -0.106
20212 C 52.7024 191.544 74.7741 C.3 0 **** -0.053
20213 C 51.9504 190.419 75.5044 C.3 0 **** -0.106
20214 C 52.2399 190.499 77.0072 C.3 0 **** -0.106
20215 C 56.4987 187.333 74.9189 C.3 0 **** 0.147
20216 C 56.0746 188.782 75.106 C.3 0 **** -0.053
20217 C 57.0086 184.682 73.6249 C.3 0 **** 0
20218 C 55.5349 184.891 73.9948 C.3 0 **** 0.147
20219 S 54.9913 186.319 74.9023 S.3 0 **** -0.294
20220 C 54.8181 183.657 74.4686 C.3 0 **** -0.053
20221 C 54.9908 182.552 73.4184 C.3 0 **** 0
20222 C 56.5109 182.256 73.1199 C.3 0 **** 0
20223 C 57.1983 183.533 72.5952 C.3 0 **** 0
20224 C 56.5987 181.148 72.0801 C.3 0 **** 0
20225 C 55.9194 179.902 72.6119 C.3 0 **** 0
20226 C 54.3946 180.129 72.988 C.3 0 **** 0
20227 C 54.2934 181.297 74.0351 C.3 0 **** -0.053
20228 C 53.8774 178.811 73.6301 C.3 0 **** 0
20229 C 53.8405 177.771 72.531 C.3 0 **** 0.16
20230 C 55.2024 177.563 71.8619 C.3 0 **** 0
20231 C 56.2184 178.666 71.8085 C.3 0 **** 0
20232 C 58.6681 183.326 72.1419 C.3 0 **** 0
20233 C 59.3263 184.595 71.6093 C.3 0 **** -0.053
20234 C 57.9487 180.957 71.3538 C.3 0 **** 0
20235 C 59.094 181.951 71.5592 C.3 0 **** 0
20236 C 57.2801 178.649 70.7088 C.3 0 **** 0
20237 C 58.4711 179.538 71.114 C.3 0 **** 0
20238 C 55.5769 176.206 71.2652 C.3 0 **** 0
20239 C 56.6654 176.33 70.153 C.3 0 **** 0
20240 C 57.8617 177.224 70.5262 C.3 0 **** 0
20241 O 53.2216 176.61 73.0415 O.3 0 **** -0.32
20242 C 51.8381 176.88 72.8189 C.3 0 **** 0.107
20243 C 51.4424 178.251 73.4572 C.3 0 **** -0.053
20244 C 52.5405 178.727 74.4061 C.3 0 **** 0.107
20245 C 50.0974 178.139 74.1898 C.3 0 **** -0.106
20246 C 49.1277 177.261 73.3774 C.3 0 **** -0.106
20247 C 49.5877 175.792 73.395 C.3 0 **** 0.134
20248 C 51.1356 175.674 73.407 C.3 0 **** -0.053
20249 C 51.6314 174.383 72.7097 C.3 0 **** -0.106
20250 C 50.6505 173.247 72.9695 C.3 0 **** -0.106
20251 C 49.2347 173.606 72.4241 C.3 0 **** 0.081
20252 N 48.9838 175.041 72.3124 N.3 0 **** -0.727
20253 C 60.1468 181.896 70.4199 C.3 0 **** 0.16
20254 C 60.6725 180.473 70.3054 C.3 0 **** 0.16
20255 C 59.528 179.581 69.9196 C.3 0 **** 0
20256 O 61.739 180.308 69.3954 O.3 0 **** -0.32
20257 C 62.7384 181.291 69.643 C.3 0 **** 0.107
20258 C 62.1329 182.653 69.4974 C.3 0 **** 0.107
20259 O 61.2142 182.82 70.5643 O.3 0 **** -0.32
20260 C 61.4529 182.851 68.1178 C.3 0 **** -0.106
20261 C 62.1125 181.972 67.0163 C.3 0 **** -0.106
20262 C 63.6119 181.78 67.3188 C.3 0 **** -0.106
20263 C 63.8456 181.021 68.6557 C.3 0 **** -0.106
20264 C 58.937 177.205 69.3504 C.3 0 **** 0
20265 C 60.1213 178.145 69.7435 C.3 0 **** -0.053
20266 C 57.2257 174.928 69.8622 C.3 0 **** 0
20267 C 58.335 174.948 68.7907 C.3 0 **** 0.16
20268 C 59.4919 175.813 69.1053 C.3 0 **** -0.053
20269 C 55.9915 174.061 69.3937 C.3 0 **** 0
20270 C 54.89 174.006 70.5293 C.3 0 **** 0
20271 C 54.3549 175.437 70.692 C.3 0 **** -0.053
20272 O 58.8236 173.707 68.3988 O.3 0 **** -0.32
20273 C 57.7292 172.828 68.1623 C.3 0 **** 0.16
20274 C 56.6277 172.678 69.2946 C.3 0 **** 0
20275 C 53.7139 173.025 70.2648 C.3 0 **** -0.053
20276 C 54.2739 171.668 69.8455 C.3 0 **** -0.053
20277 C 55.4931 171.746 68.852 C.3 0 **** 0
20278 C 53.2601 170.909 69.0593 C.3 0 **** -0.053
20279 C 51.8831 171.096 69.6393 C.3 0 **** -0.106
20280 C 51.4401 172.565 69.3867 C.3 0 **** -0.106
20281 C 52.6494 173.514 69.2592 C.3 0 **** -0.106
20282 C 56.0917 170.37 68.6782 C.3 0 **** 0
20283 C 57.3343 170.35 67.7395 C.3 0 **** 0
20284 C 58.3429 171.489 67.8618 C.3 0 **** 0
20285 C 53.7764 169.476 69.1553 C.3 0 **** 0
20286 C 55.0495 169.341 68.2999 C.3 0 **** 0
20287 C 52.3016 191.711 73.2854 C.3 0 **** -0.053
20288 C 52.3536 190.395 72.4958 C.3 0 **** -0.159
20289 C 50.916 192.353 73.15 C.3 0 **** -0.159
20290 O 52.1478 179.916 75.0782 O.3 0 **** -0.57
20291 C 59.8079 171.359 67.3572 C.3 0 **** -0.053
20292 C 60.093 170.156 66.4518 C.3 0 **** -0.053
20293 C 59.3882 168.901 66.9969 C.3 0 **** 0
20294 C 57.8418 169.054 67.1341 C.3 0 **** 0
20295 C 56.9696 167.86 67.4802 C.3 0 **** 0
20296 C 57.5259 166.502 67.1705 C.3 0 **** 0
20297 C 58.9045 166.44 66.4662 C.3 0 **** 0
20298 C 59.6977 167.712 66.0822 C.3 0 **** -0.053
20299 C 59.3982 165.099 65.9401 C.3 0 **** -0.053
20300 C 58.4161 163.907 65.9435 C.3 0 **** -0.053
20301 C 57.1685 163.992 66.8761 C.3 0 **** 0
20302 C 56.4894 165.386 66.8897 C.3 0 **** 0
20303 C 55.3017 165.455 67.9272 C.3 0 **** 0
20304 C 54.6415 166.885 67.9086 C.3 0 **** 0
20305 C 55.6777 167.959 68.2992 C.3 0 **** 0
20306 C 54.2508 164.357 67.5663 C.3 0 **** 0
20307 C 54.9645 162.954 67.5884 C.3 0 **** -0.053
20308 C 56.1354 162.887 66.5889 C.3 0 **** -0.053
20309 C 52.7462 168.394 68.7705 C.3 0 **** -0.053
20310 C 53.4726 166.986 68.9692 C.3 0 **** 0
20311 C 53.0574 164.391 68.6259 C.3 0 **** 0.02
20312 C 52.4295 165.825 68.7426 C.3 0 **** 0
20313 C 51.1878 166.018 69.6452 C.3 0 **** -0.106
20314 C 50.7856 164.697 70.2381 C.3 0 **** -0.106
20315 C 50.6956 163.637 69.1462 C.3 0 **** -0.086
20316 C 51.9316 163.395 68.3604 C.2 0 **** 0.379
20317 O 52.0141 162.418 67.6363 O.2 0 **** -0.419
20318 H 56.8149 194.884 70.4196 H 0 **** 0.053
20319 H 57.8804 193.719 71.2001 H 0 **** 0.053
20320 H 56.8461 196.347 72.2953 H 0 **** 0.053
20321 H 57.4114 194.926 73.1585 H 0 **** 0.053
20322 H 59.0406 197.199 71.9231 H 0 **** 0.053
20323 H 61.1168 195.946 72.3942 H 0 **** 0.053
20324 H 60.301 193.923 70.585 H 0 **** 0.053
20325 H 60.782 195.553 70.1279 H 0 **** 0.053
20326 H 59.479 193.435 72.7376 H 0 **** 0.053
20327 H 58.737 194.288 74.7907 H 0 **** 0.053
20328 H 61.0934 196.198 74.7337 H 0 **** 0.053
20329 H 59.8632 196.153 76.001 H 0 **** 0.053
20330 H 59.5005 197.888 74.0706 H 0 **** 0.053
20331 H 58.117 196.898 74.5226 H 0 **** 0.053
20332 H 61.1334 191.889 76.1053 H 0 **** 0.053
20333 H 62.7418 192.541 74.6369 H 0 **** 0.053
20334 H 61.8076 193.149 72.0518 H 0 **** 0.053
20335 H 62.3382 194.261 73.3208 H 0 **** 0.053
20336 H 58.8207 192.258 74.1296 H 0 **** 0.053
20337 H 62.1477 187.478 71.5996 H 0 **** 0.053
20338 H 61.7291 189.064 70.898 H 0 **** 0.053
20339 H 64.1186 189.141 71.6787 H 0 **** 0.053
20340 H 63.6447 188.443 73.2358 H 0 **** 0.053
20341 H 64.0426 191.084 73.1264 H 0 **** 0.1268
20342 H 56.7374 191.711 74.7654 H 0 **** 0.053
20343 H 58.121 190.737 79.1353 H 0 **** 0.053
20344 H 57.734 192.495 79.1575 H 0 **** 0.053
20345 H 59.7308 192.167 77.6751 H 0 **** 0.1268
20346 H 55.7038 191.078 80.111 H 0 **** 0.053
20347 H 54.945 192.411 79.2069 H 0 **** 0.053
20348 H 53.2547 190.611 79.443 H 0 **** 0.053
20349 H 54.4027 189.406 78.8214 H 0 **** 0.053
20350 H 54.7129 192.234 74.5526 H 0 **** 0.053
20351 H 54.5287 190.5 74.2934 H 0 **** 0.053
20352 H 52.4496 192.498 75.2821 H 0 **** 0.053
20353 H 52.2866 189.444 75.1162 H 0 **** 0.053
20354 H 50.8661 190.473 75.3312 H 0 **** 0.053
20355 H 51.895 189.566 77.5099 H 0 **** 0.053
20356 H 51.6425 191.329 77.4472 H 0 **** 0.053
20357 H 55.327 188.841 75.97 H 0 **** 0.053
20358 H 53.7314 183.798 74.7495 H 0 **** 0.053
20359 H 53.2007 181.586 74.1533 H 0 **** 0.053
20360 H 60.4143 184.478 71.3306 H 0 **** 0.053
20361 H 51.6591 176.907 71.7307 H 0 **** 0.053
20362 H 51.2999 179.002 72.6531 H 0 **** 0.053
20363 H 52.7125 177.95 75.138 H 0 **** 0.053
20364 H 50.2575 177.681 75.1903 H 0 **** 0.053
20365 H 49.6798 179.155 74.3759 H 0 **** 0.053
20366 H 49.1256 177.642 72.3431 H 0 **** 0.053
20367 H 48.0941 177.341 73.749 H 0 **** 0.053
20368 H 49.226 175.352 74.3385 H 0 **** 0.053
20369 H 51.4701 175.639 74.4643 H 0 **** 0.053
20370 H 51.6472 174.566 71.6252 H 0 **** 0.053
20371 H 52.6607 174.137 73.0251 H 0 **** 0.053
20372 H 50.6154 173.082 74.0617 H 0 **** 0.053
20373 H 51.0086 172.299 72.5331 H 0 **** 0.053
20374 H 48.4679 173.173 73.0866 H 0 **** 0.053
20375 H 49.0753 173.137 71.438 H 0 **** 0.053
20376 H 49.3342 175.392 71.443 H 0 **** 0.353
20377 H 63.0715 181.169 70.6733 H 0 **** 0.053
20378 H 62.9067 183.409 69.6064 H 0 **** 0.053
20379 H 60.3697 182.608 68.1499 H 0 **** 0.053
20380 H 61.485 183.917 67.8077 H 0 **** 0.053
20381 H 61.9615 182.419 66.0127 H 0 **** 0.053
20382 H 61.6167 180.981 66.983 H 0 **** 0.053
20383 H 64.0664 182.783 67.399 H 0 **** 0.053
20384 H 64.1203 181.26 66.4867 H 0 **** 0.053
20385 H 64.8485 181.253 69.0592 H 0 **** 0.053
20386 H 63.8333 179.925 68.4562 H 0 **** 0.053
20387 H 60.8908 178.125 68.8969 H 0 **** 0.053
20388 H 60.2906 175.833 68.3345 H 0 **** 0.053
20389 H 53.5094 175.391 71.4349 H 0 **** 0.053
20390 H 53.2327 172.928 71.2285 H 0 **** 0.053
20391 H 54.5846 171.127 70.7605 H 0 **** 0.053
20392 H 53.2368 171.221 67.9935 H 0 **** 0.053
20393 H 51.9272 170.883 70.7243 H 0 **** 0.053
20394 H 51.1154 170.414 69.2122 H 0 **** 0.053
20395 H 50.7966 172.91 70.2208 H 0 **** 0.053
20396 H 50.8122 172.615 68.4764 H 0 **** 0.053
20397 H 52.3342 174.558 69.4418 H 0 **** 0.053
20398 H 53.0671 173.485 68.2444 H 0 **** 0.053
20399 H 53.029 192.408 72.8271 H 0 **** 0.053
20400 H 52.1774 190.575 71.4231 H 0 **** 0.053
20401 H 51.5792 189.695 72.85 H 0 **** 0.053
20402 H 53.3275 189.889 72.5899 H 0 **** 0.053
20403 H 50.876 193.328 73.6625 H 0 **** 0.053
20404 H 50.1384 191.71 73.5905 H 0 **** 0.053
20405 H 50.6575 192.52 72.0931 H 0 **** 0.053
20406 H 52.8829 180.146 75.6433 H 0 **** 0.41
20407 H 60.3421 172.323 67.1259 H 0 **** 0.053
20408 H 61.198 170.003 66.305 H 0 **** 0.053
20409 H 60.795 167.517 65.9353 H 0 **** 0.053
20410 H 60.4229 165.019 65.4961 H 0 **** 0.053
20411 H 58.859 162.896 65.7633 H 0 **** 0.053
20412 H 54.256 162.105 67.3934 H 0 **** 0.053
20413 H 56.6174 161.884 66.5401 H 0 **** 0.053
20414 H 51.8118 168.453 69.4378 H 0 **** 0.053
20415 H 51.3728 166.769 70.4329 H 0 **** 0.053
20416 H 50.4354 166.419 68.9683 H 0 **** 0.053
20417 H 49.8278 164.793 70.7465 H 0 **** 0.053
20418 H 51.5303 164.401 71.0047 H 0 **** 0.053
20419 H 49.9692 163.921 68.3809 H 0 **** 0.053
20420 H 50.4754 162.63 69.4938 H 0 **** 0.053
20421 C 68.7378 177.11 8.90606 C.3 0 **** 0.054
20422 C 69.3923 176.976 10.3113 C.3 0 **** -0.106
20423 C 70.6095 176.01 10.2717 C.3 0 **** -0.053
20424 C 70.258 174.818 9.34998 C.3 0 **** -0.053
20425 C 69.8918 175.333 7.92566 C.3 0 **** 0.054
20426 O 69.6474 176.732 7.88591 O.3 0 **** -0.32
20427 C 69.108 173.964 9.96066 C.3 0 **** -0.053
20428 C 69.1999 173.856 11.5307 C.3 0 **** 0.107
20429 C 70.6249 174.122 12.0005 C.3 0 **** -0.106
20430 C 71.0795 175.555 11.6757 C.3 0 **** -0.106
20431 O 68.8142 172.581 12.0564 O.3 0 **** -0.32
20432 C 67.6535 172.099 11.3982 C.3 0 **** 0.107
20433 C 68.0975 171.582 10.0035 C.3 0 **** -0.053
20434 C 69.0785 172.565 9.31315 C.3 0 **** -0.106
20435 C 66.9745 171.204 9.07217 C.2 0 **** 0
20436 C 65.7056 172.036 9.19116 C.3 0 **** 0
20437 C 65.3552 172.516 10.5992 C.3 0 **** 0
20438 C 66.4972 173.096 11.4242 C.3 0 **** -0.053
20439 C 64.0961 173.356 10.6802 C.3 0 **** 0
20440 C 62.9173 172.625 10.0465 C.3 0 **** 0
20441 C 63.3041 172.234 8.57094 C.3 0 **** 0.16
20442 C 64.5376 171.361 8.50101 C.3 0 **** 0
20443 C 64.8396 170.827 7.07419 C.3 0 **** -0.106
20444 C 65.8694 169.73 7.29946 C.3 0 **** -0.106
20445 C 67.0206 170.172 8.19638 C.2 0 **** -0.1268
20446 O 62.2747 171.825 7.64348 O.3 0 **** -0.32
20447 C 60.9995 171.768 8.24575 C.3 0 **** 0.16
20448 C 60.5783 173.01 9.09978 C.3 0 **** 0
20449 C 61.6552 173.526 10.0878 C.3 0 **** 0
20450 C 65.9919 173.422 12.8056 C.2 0 **** 0
20451 C 64.9935 174.545 12.7861 C.3 0 **** -0.053
20452 C 63.7667 173.897 12.0822 C.3 0 **** 0
20453 C 64.5178 175.082 14.1179 C.2 0 **** 0
20454 C 64.7308 174.322 15.224 C.2 0 **** 0
20455 C 65.5667 173.051 15.2276 C.3 0 **** -0.106
20456 C 66.257 172.735 13.9108 C.2 0 **** -0.1268
20457 C 64.3106 174.809 16.5916 C.3 0 **** -0.106
20458 C 63.0233 175.611 16.4663 C.3 0 **** -0.106
20459 C 63.166 176.609 15.3303 C.2 0 **** 0
20460 C 63.9143 176.31 14.2194 C.2 0 **** 0
20461 C 63.9852 177.308 13.0797 C.3 0 **** -0.106
20462 C 63.5505 178.714 13.4678 C.3 0 **** -0.053
20463 C 62.1892 178.65 14.1806 C.3 0 **** -0.106
20464 C 62.3312 177.862 15.4875 C.3 0 **** -0.106
20465 C 61.3083 173.874 11.5411 C.3 0 **** 0.147
20466 C 62.4406 174.704 12.1285 C.3 0 **** -0.053
20467 C 59.1593 172.944 9.67528 C.3 0 **** 0
20468 C 58.721 174.126 10.5492 C.3 0 **** 0.147
20469 S 59.7593 174.777 11.8361 S.3 0 **** -0.294
20470 C 57.2841 174.091 10.9918 C.3 0 **** -0.053
20471 C 56.3892 173.931 9.75539 C.3 0 **** 0
20472 C 56.7661 172.65 8.91704 C.3 0 **** 0
20473 C 58.231 172.748 8.44406 C.3 0 **** 0
20474 C 55.8328 172.558 7.71864 C.3 0 **** 0
20475 C 54.3993 172.463 8.20097 C.3 0 **** 0
20476 C 53.9549 173.692 9.10041 C.3 0 **** 0
20477 C 54.9381 173.816 10.3212 C.3 0 **** -0.053
20478 C 52.5205 173.39 9.61773 C.3 0 **** 0
20479 C 51.5991 173.451 8.41916 C.3 0 **** 0.16
20480 C 52.0027 172.483 7.30351 C.3 0 **** 0
20481 C 53.43 172.051 7.12794 C.3 0 **** 0
20482 C 58.6728 171.601 7.49643 C.3 0 **** 0
20483 C 60.1183 171.723 7.0239 C.3 0 **** -0.053
20484 C 56.2484 171.623 6.56143 C.3 0 **** 0
20485 C 57.6226 170.949 6.55651 C.3 0 **** 0
20486 C 53.8964 171.57 5.75357 C.3 0 **** 0
20487 C 55.1864 170.742 5.89785 C.3 0 **** 0
20488 C 50.9465 171.882 6.37513 C.3 0 **** 0
20489 C 51.5526 171.434 5.00723 C.3 0 **** 0
20490 C 52.8516 170.615 5.12186 C.3 0 **** 0
20491 O 50.2686 173.345 8.87698 O.3 0 **** -0.32
20492 C 49.9436 174.7 9.18413 C.3 0 **** 0.107
20493 C 51.0008 175.304 10.1643 C.3 0 **** -0.053
20494 C 51.859 174.192 10.7643 C.3 0 **** 0.107
20495 C 50.3121 176.119 11.2685 C.3 0 **** -0.106
20496 C 49.139 176.922 10.6763 C.3 0 **** -0.106
20497 C 47.9966 175.976 10.2605 C.3 0 **** 0.134
20498 C 48.5352 174.619 9.73395 C.3 0 **** -0.053
20499 C 47.5938 173.983 8.68105 C.3 0 **** -0.106
20500 C 46.1437 174.288 9.03401 C.3 0 **** -0.106
20501 C 45.8972 175.827 9.07072 C.3 0 **** 0.081
20502 N 47.1003 176.619 9.32067 N.3 0 **** -0.727
20503 C 58.0512 170.473 5.14247 C.3 0 **** 0.16
20504 C 56.9834 169.54 4.59317 C.3 0 **** 0.16
20505 C 55.7083 170.32 4.45027 C.3 0 **** 0
20506 O 57.3105 168.924 3.36566 O.3 0 **** -0.32
20507 C 58.6118 168.353 3.44635 C.3 0 **** 0.107
20508 C 59.6006 169.43 3.77084 C.3 0 **** 0.107
20509 O 59.3312 169.862 5.09408 O.3 0 **** -0.32
20510 C 59.5437 170.606 2.76073 C.3 0 **** -0.106
20511 C 59.0595 170.14 1.35753 C.3 0 **** -0.106
20512 C 59.5009 168.685 1.10048 C.3 0 **** -0.106
20513 C 58.8632 167.693 2.11416 C.3 0 **** -0.106
20514 C 53.324 170.148 3.67322 C.3 0 **** 0
20515 C 54.6583 169.349 3.81868 C.3 0 **** -0.053
20516 C 50.5237 170.546 4.2878 C.3 0 **** 0
20517 C 51.0431 170.026 2.93165 C.3 0 **** 0.16
20518 C 52.301 169.251 2.99961 C.3 0 **** -0.053
20519 C 49.2377 171.444 4.10265 C.3 0 **** 0
20520 C 48.6886 171.921 5.50873 C.3 0 **** 0
20521 C 49.7588 172.847 6.10738 C.3 0 **** -0.053
20522 O 50.1339 169.298 2.17241 O.3 0 **** -0.32
20523 C 48.8869 169.984 2.15328 C.3 0 **** 0.16
20524 C 48.2512 170.426 3.53831 C.3 0 **** 0
20525 C 47.3158 172.649 5.47152 C.3 0 **** -0.053
20526 C 46.3317 171.828 4.64142 C.3 0 **** -0.053
20527 C 46.9461 171.205 3.33195 C.3 0 **** 0
20528 C 45.2463 172.7 4.11025 C.3 0 **** -0.053
20529 C 44.8207 173.713 5.14028 C.3 0 **** -0.106
20530 C 45.9786 174.734 5.33152 C.3 0 **** -0.106
20531 C 47.3499 174.116 4.98973 C.3 0 **** -0.106
20532 C 45.953 170.251 2.7123 C.3 0 **** 0
20533 C 46.4861 169.552 1.42663 C.3 0 **** 0
20534 C 47.9372 169.078 1.41841 C.3 0 **** 0
20535 C 44.1574 171.691 3.75641 C.3 0 **** 0
20536 C 44.5964 170.89 2.5165 C.3 0 **** 0
20537 C 63.5857 179.684 12.2583 C.3 0 **** -0.053
20538 C 62.4395 179.449 11.2635 C.3 0 **** -0.159
20539 C 63.5946 181.147 12.7169 C.3 0 **** -0.159
20540 O 52.7522 174.714 11.7387 O.3 0 **** -0.57
20541 C 48.4489 167.984 0.439133 C.3 0 **** -0.053
20542 C 47.508 167.639 -0.719909 C.3 0 **** -0.053
20543 C 46.0551 167.556 -0.216111 C.3 0 **** 0
20544 C 45.5428 168.868 0.454335 C.3 0 **** 0
20545 C 44.0819 169.028 0.83773 C.3 0 **** 0
20546 C 43.0914 168.164 0.113069 C.3 0 **** 0
20547 C 43.6348 167.253 -1.01619 C.3 0 **** 0
20548 C 45.136 167.198 -1.38932 C.3 0 **** -0.053
20549 C 42.6421 166.525 -1.91278 C.3 0 **** -0.053
20550 C 41.1504 166.913 -1.81206 C.3 0 **** -0.053
20551 C 40.6737 167.642 -0.517275 C.3 0 **** 0
20552 C 41.6566 168.733 -0.0139685 C.3 0 **** 0
20553 C 41.1864 169.365 1.35379 C.3 0 **** 0
20554 C 42.21 170.466 1.8276 C.3 0 **** 0
20555 C 43.6042 169.843 2.04508 C.3 0 **** 0
20556 C 39.7632 169.98 1.16399 C.3 0 **** 0
20557 C 38.7867 168.843 0.681376 C.3 0 **** -0.053
20558 C 39.2492 168.212 -0.646183 C.3 0 **** -0.053
20559 C 42.758 172.303 3.54078 C.3 0 **** -0.053
20560 C 41.7768 171.087 3.21588 C.3 0 **** 0
20561 C 39.2593 170.597 2.54713 C.3 0 **** 0.02
20562 C 40.2944 171.619 3.13577 C.3 0 **** 0
20563 C 39.9196 172.396 4.42021 C.3 0 **** -0.106
20564 C 38.5319 172.016 4.85295 C.3 0 **** -0.106
20565 C 37.5698 172.112 3.6744 C.3 0 **** -0.086
20566 C 37.8938 171.277 2.49018 C.2 0 **** 0.379
20567 O 37.0645 171.118 1.61099 O.2 0 **** -0.419
20568 H 68.4515 178.151 8.70406 H 0 **** 0.053
20569 H 67.812 176.517 8.84979 H 0 **** 0.053
20570 H 69.7279 177.956 10.702 H 0 **** 0.053
20571 H 68.6442 176.617 11.0427 H 0 **** 0.053
20572 H 71.4307 176.563 9.78676 H 0 **** 0.053
20573 H 71.1442 174.159 9.29287 H 0 **** 0.053
20574 H 69.0293 174.782 7.51239 H 0 **** 0.053
20575 H 70.7265 175.16 7.23739 H 0 **** 0.053
20576 H 68.1687 174.472 9.68287 H 0 **** 0.053
20577 H 68.5627 174.635 11.9879 H 0 **** 0.053
20578 H 71.2831 173.381 11.5093 H 0 **** 0.053
20579 H 70.6843 173.92 13.0817 H 0 **** 0.053
20580 H 72.1744 175.612 11.7469 H 0 **** 0.053
20581 H 70.6824 176.239 12.4392 H 0 **** 0.053
20582 H 67.3401 171.21 11.9501 H 0 **** 0.053
20583 H 68.6543 170.655 10.1801 H 0 **** 0.053
20584 H 68.9053 172.659 8.21868 H 0 **** 0.053
20585 H 70.093 172.143 9.42362 H 0 **** 0.053
20586 H 66.7773 174.057 10.9663 H 0 **** 0.053
20587 H 63.9149 170.422 6.61786 H 0 **** 0.053
20588 H 65.2041 171.637 6.40855 H 0 **** 0.053
20589 H 66.2454 169.348 6.34714 H 0 **** 0.053
20590 H 65.3598 168.893 7.8118 H 0 **** 0.053
20591 H 67.9273 169.587 8.07629 H 0 **** 0.1268
20592 H 65.3884 175.37 12.1453 H 0 **** 0.053
20593 H 64.9305 172.168 15.5361 H 0 **** 0.053
20594 H 66.365 173.145 16.0175 H 0 **** 0.053
20595 H 66.9519 171.9 13.9204 H 0 **** 0.1268
20596 H 64.1969 173.966 17.3081 H 0 **** 0.053
20597 H 65.1219 175.452 16.9778 H 0 **** 0.053
20598 H 62.7725 176.116 17.4201 H 0 **** 0.053
20599 H 62.1798 174.932 16.2356 H 0 **** 0.053
20600 H 65.0248 177.358 12.7229 H 0 **** 0.053
20601 H 63.3821 176.963 12.2175 H 0 **** 0.053
20602 H 64.293 179.091 14.2013 H 0 **** 0.053
20603 H 61.4577 178.15 13.5264 H 0 **** 0.053
20604 H 61.793 179.653 14.3917 H 0 **** 0.053
20605 H 61.3222 177.613 15.8909 H 0 **** 0.053
20606 H 62.8201 178.51 16.2499 H 0 **** 0.053
20607 H 62.1516 175.028 13.1871 H 0 **** 0.053
20608 H 56.9484 174.954 11.6414 H 0 **** 0.053
20609 H 54.7399 174.802 10.8499 H 0 **** 0.053
20610 H 60.4757 170.866 6.38183 H 0 **** 0.053
20611 H 49.9303 175.277 8.24363 H 0 **** 0.053
20612 H 51.652 176.012 9.61143 H 0 **** 0.053
20613 H 51.2004 173.477 11.2371 H 0 **** 0.053
20614 H 49.9282 175.431 12.053 H 0 **** 0.053
20615 H 51.0536 176.781 11.7719 H 0 **** 0.053
20616 H 49.5228 177.465 9.79716 H 0 **** 0.053
20617 H 48.7659 177.681 11.3817 H 0 **** 0.053
20618 H 47.4134 175.758 11.1697 H 0 **** 0.053
20619 H 48.6055 173.92 10.5925 H 0 **** 0.053
20620 H 47.804 174.452 7.70848 H 0 **** 0.053
20621 H 47.7894 172.901 8.58263 H 0 **** 0.053
20622 H 45.9413 173.839 10.0234 H 0 **** 0.053
20623 H 45.4475 173.797 8.33246 H 0 **** 0.053
20624 H 45.1611 176.061 9.8567 H 0 **** 0.053
20625 H 45.4382 176.163 8.12417 H 0 **** 0.053
20626 H 47.5905 176.784 8.46408 H 0 **** 0.353
20627 H 58.6042 167.633 4.26379 H 0 **** 0.053
20628 H 60.606 169.018 3.75592 H 0 **** 0.053
20629 H 58.8694 171.418 3.10589 H 0 **** 0.053
20630 H 60.5355 171.096 2.66462 H 0 **** 0.053
20631 H 59.4369 170.818 0.565268 H 0 **** 0.053
20632 H 57.9538 170.2 1.3052 H 0 **** 0.053
20633 H 60.5983 168.646 1.21213 H 0 **** 0.053
20634 H 59.2697 168.378 0.0641686 H 0 **** 0.053
20635 H 59.4793 166.779 2.19613 H 0 **** 0.053
20636 H 57.8698 167.369 1.72727 H 0 **** 0.053
20637 H 54.9911 169.014 2.77639 H 0 **** 0.053
20638 H 52.6788 168.878 2.02466 H 0 **** 0.053
20639 H 49.3376 173.26 7.06735 H 0 **** 0.053
20640 H 46.9929 172.651 6.5038 H 0 **** 0.053
20641 H 45.9387 171.013 5.28102 H 0 **** 0.053
20642 H 45.5563 173.244 3.19236 H 0 **** 0.053
20643 H 44.6086 173.182 6.08789 H 0 **** 0.053
20644 H 43.8961 174.27 4.87318 H 0 **** 0.053
20645 H 45.9935 175.089 6.38182 H 0 **** 0.053
20646 H 45.7911 175.631 4.70998 H 0 **** 0.053
20647 H 48.1589 174.703 5.46076 H 0 **** 0.053
20648 H 47.5328 174.139 3.90771 H 0 **** 0.053
20649 H 64.538 179.505 11.7235 H 0 **** 0.053
20650 H 62.566 180.074 10.3652 H 0 **** 0.053
20651 H 61.4683 179.707 11.7171 H 0 **** 0.053
20652 H 62.3834 178.401 10.93 H 0 **** 0.053
20653 H 64.4451 181.35 13.387 H 0 **** 0.053
20654 H 62.6708 181.395 13.2625 H 0 **** 0.053
20655 H 63.6743 181.832 11.8584 H 0 **** 0.053
20656 H 53.2469 173.963 12.0622 H 0 **** 0.41
20657 H 49.5556 167.982 0.229178 H 0 **** 0.053
20658 H 47.8352 166.703 -1.25244 H 0 **** 0.053
20659 H 45.4221 166.254 -1.93012 H 0 **** 0.053
20660 H 43.0137 165.804 -2.68387 H 0 **** 0.053
20661 H 40.4232 166.229 -2.31636 H 0 **** 0.053
20662 H 37.7266 169.199 0.577558 H 0 **** 0.053
20663 H 38.5411 167.447 -1.04145 H 0 **** 0.053
20664 H 42.3986 172.86 4.47976 H 0 **** 0.053
20665 H 40.652 172.221 5.2277 H 0 **** 0.053
20666 H 39.9936 173.441 4.1218 H 0 **** 0.053
20667 H 38.2013 172.667 5.6602 H 0 **** 0.053
20668 H 38.548 170.983 5.25663 H 0 **** 0.053
20669 H 37.5513 173.124 3.26359 H 0 **** 0.053
20670 H 36.5516 171.788 3.8789 H 0 **** 0.053
20671 C 1.37564 180.726 1.83167 C.3 0 **** 0.054
20672 C 0.889309 179.377 1.22823 C.3 0 **** -0.106
20673 C 0.332205 178.438 2.33392 C.3 0 **** -0.053
20674 C 1.23575 178.565 3.58403 C.3 0 **** -0.053
20675 C 1.27997 180.047 4.06315 C.3 0 **** 0.054
20676 O 0.778565 180.959 3.09665 O.3 0 **** -0.32
20677 C 2.66411 178.016 3.29531 C.3 0 **** -0.053
20678 C 2.6495 176.752 2.35341 C.3 0 **** 0.107
20679 C 1.29036 176.064 2.40466 C.3 0 **** -0.106
20680 C 0.168124 176.969 1.86896 C.3 0 **** -0.106
20681 O 3.63334 175.764 2.67942 O.3 0 **** -0.32
20682 C 4.87403 176.377 2.99257 C.3 0 **** 0.107
20683 C 4.74569 176.97 4.42105 C.3 0 **** -0.053
20684 C 3.39721 177.71 4.61682 C.3 0 **** -0.106
20685 C 5.8994 177.834 4.86326 C.2 0 **** 0
20686 C 6.56911 178.655 3.77081 C.3 0 **** 0
20687 C 6.63553 177.999 2.3923 C.3 0 **** 0
20688 C 5.36224 177.324 1.89816 C.3 0 **** -0.053
20689 C 7.29281 178.85 1.32391 C.3 0 **** 0
20690 C 8.67532 179.31 1.77391 C.3 0 **** 0
20691 C 8.53156 180.055 3.15356 C.3 0 **** 0.16
20692 C 7.91363 179.185 4.22614 C.3 0 **** 0
20693 C 7.91657 179.84 5.63438 C.3 0 **** -0.106
20694 C 7.58927 178.693 6.57795 C.3 0 **** -0.106
20695 C 6.37924 177.882 6.12873 C.2 0 **** -0.1268
20696 O 9.62087 180.865 3.64861 O.3 0 **** -0.32
20697 C 10.7511 180.821 2.80423 C.3 0 **** 0.16
20698 C 10.4873 181.037 1.27697 C.3 0 **** 0
20699 C 9.3039 180.226 0.691409 C.3 0 **** 0
20700 C 5.63995 176.653 0.577953 C.2 0 **** 0
20701 C 5.92816 177.651 -0.50774 C.3 0 **** -0.053
20702 C 7.30944 178.227 -0.0826801 C.3 0 **** 0
20703 C 6.07263 177.127 -1.91947 C.2 0 **** 0
20704 C 6.28275 175.795 -2.08669 C.2 0 **** 0
20705 C 6.21017 174.78 -0.955667 C.3 0 **** -0.106
20706 C 5.76835 175.345 0.384247 C.2 0 **** -0.1268
20707 C 6.40555 175.197 -3.46902 C.3 0 **** -0.106
20708 C 7.10501 176.19 -4.386 C.3 0 **** -0.106
20709 C 6.46711 177.558 -4.21848 C.2 0 **** 0
20710 C 5.96832 177.96 -3.00467 C.2 0 **** 0
20711 C 5.39209 179.356 -2.86246 C.3 0 **** -0.106
20712 C 5.05333 180.018 -4.19006 C.3 0 **** -0.053
20713 C 6.2627 179.916 -5.1351 C.3 0 **** -0.106
20714 C 6.54915 178.443 -5.44438 C.3 0 **** -0.106
20715 C 9.43414 179.46 -0.631429 C.3 0 **** 0.147
20716 C 8.04104 179.107 -1.13162 C.3 0 **** -0.053
20717 C 11.7459 181.057 0.402496 C.3 0 **** 0
20718 C 11.5271 181.232 -1.10561 C.3 0 **** 0.147
20719 S 10.3118 180.286 -1.99144 S.3 0 **** -0.294
20720 C 12.7849 181.373 -1.91761 C.3 0 **** -0.053
20721 C 13.6289 182.511 -1.32791 C.3 0 **** 0
20722 C 13.9511 182.275 0.197642 C.3 0 **** 0
20723 C 12.6374 182.181 1.00055 C.3 0 **** 0
20724 C 14.794 183.437 0.704674 C.3 0 **** 0
20725 C 16.0796 183.514 -0.0942885 C.3 0 **** 0
20726 C 15.8424 183.698 -1.65217 C.3 0 **** 0
20727 C 14.9406 182.521 -2.17574 C.3 0 **** -0.053
20728 C 17.2341 183.631 -2.3414 C.3 0 **** 0
20729 C 17.9889 184.876 -1.92877 C.3 0 **** 0.16
20730 C 18.1276 185.016 -0.409856 C.3 0 **** 0
20731 C 17.1168 184.412 0.521598 C.3 0 **** 0
20732 C 12.8346 182.082 2.53677 C.3 0 **** 0
20733 C 11.5251 182.009 3.31581 C.3 0 **** -0.053
20734 C 14.9047 183.623 2.23412 C.3 0 **** 0
20735 C 14.0644 182.771 3.18799 C.3 0 **** 0
20736 C 16.9512 185.003 1.92198 C.3 0 **** 0
20737 C 16.2632 183.979 2.84464 C.3 0 **** 0
20738 C 19.3366 185.728 0.198806 C.3 0 **** 0
20739 C 19.0339 186.284 1.62658 C.3 0 **** 0
20740 C 18.3333 185.285 2.56578 C.3 0 **** 0
20741 O 19.1911 184.93 -2.66571 O.3 0 **** -0.32
20742 C 18.7833 185.586 -3.86538 C.3 0 **** 0.107
20743 C 17.5723 184.837 -4.50956 C.3 0 **** -0.053
20744 C 17.4029 183.461 -3.87044 C.3 0 **** 0.107
20745 C 17.7573 184.716 -6.02928 C.3 0 **** -0.106
20746 C 18.3552 186.018 -6.59286 C.3 0 **** -0.106
20747 C 19.8173 186.18 -6.13642 C.3 0 **** 0.134
20748 C 20.0406 185.613 -4.70868 C.3 0 **** -0.053
20749 C 21.168 186.358 -3.95147 C.3 0 **** -0.106
20750 C 22.2636 186.765 -4.92794 C.3 0 **** -0.106
20751 C 21.6931 187.702 -6.03662 C.3 0 **** 0.081
20752 N 20.2562 187.555 -6.26104 N.3 0 **** -0.727
20753 C 13.9287 183.407 4.59749 C.3 0 **** 0.16
20754 C 15.3193 183.65 5.16312 C.3 0 **** 0.16
20755 C 16.0192 184.639 4.27638 C.3 0 **** 0
20756 O 15.3434 184.101 6.50028 O.3 0 **** -0.32
20757 C 14.5141 183.269 7.30373 C.3 0 **** 0.107
20758 C 13.1168 183.303 6.76528 C.3 0 **** 0.107
20759 O 13.1375 182.655 5.50447 O.3 0 **** -0.32
20760 C 12.5616 184.747 6.65958 C.3 0 **** -0.106
20761 C 13.2067 185.694 7.71236 C.3 0 **** -0.106
20762 C 13.5652 184.903 8.98662 C.3 0 **** -0.106
20763 C 14.625 183.799 8.71077 C.3 0 **** -0.106
20764 C 18.1556 185.937 4.00886 C.3 0 **** 0
20765 C 17.4138 184.915 4.92869 C.3 0 **** -0.053
20766 C 20.3659 186.668 2.29219 C.3 0 **** 0
20767 C 20.1765 187.204 3.72461 C.3 0 **** 0.16
20768 C 19.4872 186.282 4.64998 C.3 0 **** -0.053
20769 C 21.0158 187.759 1.35266 C.3 0 **** 0
20770 C 21.2555 187.169 -0.0977749 C.3 0 **** 0
20771 C 19.8667 186.885 -0.690989 C.3 0 **** -0.053
20772 O 21.3255 187.663 4.35532 O.3 0 **** -0.32
20773 C 22.0485 188.5 3.46036 C.3 0 **** 0.16
20774 C 22.3785 187.938 2.01413 C.3 0 **** 0
20775 C 22.0664 188.084 -1.05822 C.3 0 **** -0.053
20776 C 23.3264 188.571 -0.34599 C.3 0 **** -0.053
20777 C 23.1058 188.983 1.1583 C.3 0 **** 0
20778 C 23.8134 189.838 -0.962606 C.3 0 **** -0.053
20779 C 23.6716 189.794 -2.46104 C.3 0 **** -0.106
20780 C 22.1564 189.837 -2.81126 C.3 0 **** -0.106
20781 C 21.2883 189.269 -1.66963 C.3 0 **** -0.106
20782 C 24.4423 189.24 1.81339 C.3 0 **** 0
20783 C 24.3259 189.622 3.31906 C.3 0 **** 0
20784 C 23.3258 188.846 4.17419 C.3 0 **** 0
20785 C 25.2622 189.899 -0.485616 C.3 0 **** 0
20786 C 25.2834 190.216 1.0209 C.3 0 **** 0
20787 C 4.52209 181.462 -3.99542 C.3 0 **** -0.053
20788 C 5.62211 182.463 -3.61186 C.3 0 **** -0.159
20789 C 3.77306 181.953 -5.23991 C.3 0 **** -0.159
20790 O 16.3747 182.726 -4.52029 O.3 0 **** -0.57
20791 C 23.4285 188.79 5.72508 C.3 0 **** -0.053
20792 C 24.4099 189.777 6.36638 C.3 0 **** -0.053
20793 C 25.7068 189.849 5.53842 C.3 0 **** 0
20794 C 25.4842 190.273 4.05267 C.3 0 **** 0
20795 C 26.6627 190.582 3.14512 C.3 0 **** 0
20796 C 27.9507 190.967 3.81227 C.3 0 **** 0
20797 C 27.9401 191.102 5.35585 C.3 0 **** 0
20798 C 26.6729 190.836 6.20434 C.3 0 **** -0.053
20799 C 29.1592 191.695 6.04817 C.3 0 **** -0.053
20800 C 30.2463 192.354 5.17027 C.3 0 **** -0.053
20801 C 30.294 191.967 3.65951 C.3 0 **** 0
20802 C 28.8968 191.878 2.99119 C.3 0 **** 0
20803 C 28.9876 191.381 1.49554 C.3 0 **** 0
20804 C 27.5496 191.305 0.856146 C.3 0 **** 0
20805 C 26.6676 190.31 1.63673 C.3 0 **** 0
20806 C 29.899 192.362 0.690801 C.3 0 **** 0
20807 C 31.3148 192.407 1.37738 C.3 0 **** -0.053
20808 C 31.23 192.876 2.84276 C.3 0 **** -0.053
20809 C 26.1541 190.889 -1.26244 C.3 0 **** -0.053
20810 C 27.6154 190.773 -0.631649 C.3 0 **** 0
20811 C 30.0277 191.855 -0.817507 C.3 0 **** 0.02
20812 C 28.62 191.646 -1.47877 C.3 0 **** 0
20813 C 28.5555 191.26 -2.97572 C.3 0 **** -0.106
20814 C 29.9467 191.196 -3.54022 C.3 0 **** -0.106
20815 C 30.7188 192.46 -3.17875 C.3 0 **** -0.086
20816 C 30.8568 192.755 -1.73048 C.2 0 **** 0.379
20817 O 31.6462 193.603 -1.35262 O.2 0 **** -0.419
20818 H 1.09115 181.569 1.18793 H 0 **** 0.053
20819 H 2.47416 180.746 1.90343 H 0 **** 0.053
20820 H 0.103904 179.53 0.462298 H 0 **** 0.053
20821 H 1.72018 178.883 0.690706 H 0 **** 0.053
20822 H -0.658739 178.833 2.60981 H 0 **** 0.053
20823 H 0.80751 177.927 4.37951 H 0 **** 0.053
20824 H 2.30038 180.336 4.3694 H 0 **** 0.053
20825 H 0.644991 180.175 4.94668 H 0 **** 0.053
20826 H 3.21226 178.835 2.79956 H 0 **** 0.053
20827 H 2.80454 177.074 1.3074 H 0 **** 0.053
20828 H 1.09777 175.782 3.45691 H 0 **** 0.053
20829 H 1.34884 175.122 1.8372 H 0 **** 0.053
20830 H -0.80333 176.573 2.19589 H 0 **** 0.053
20831 H 0.166821 176.926 0.770552 H 0 **** 0.053
20832 H 5.5993 175.565 3.07958 H 0 **** 0.053
20833 H 4.73907 176.118 5.11003 H 0 **** 0.053
20834 H 3.49141 178.639 5.21992 H 0 **** 0.053
20835 H 2.73915 177.038 5.1964 H 0 **** 0.053
20836 H 4.62948 178.118 1.68937 H 0 **** 0.053
20837 H 8.91591 180.267 5.85189 H 0 **** 0.053
20838 H 7.1866 180.675 5.69297 H 0 **** 0.053
20839 H 7.45392 179.056 7.59957 H 0 **** 0.053
20840 H 8.45699 178.008 6.58435 H 0 **** 0.053
20841 H 5.89523 177.326 6.92622 H 0 **** 0.1268
20842 H 5.16443 178.465 -0.464016 H 0 **** 0.053
20843 H 7.20878 174.264 -0.831838 H 0 **** 0.053
20844 H 5.47972 173.971 -1.24272 H 0 **** 0.053
20845 H 5.59457 174.623 1.17677 H 0 **** 0.1268
20846 H 6.93636 174.221 -3.44635 H 0 **** 0.053
20847 H 5.38247 174.998 -3.83559 H 0 **** 0.053
20848 H 7.06975 175.853 -5.44109 H 0 **** 0.053
20849 H 8.17504 176.264 -4.11231 H 0 **** 0.053
20850 H 4.46967 179.294 -2.26606 H 0 **** 0.053
20851 H 6.08142 180.009 -2.2927 H 0 **** 0.053
20852 H 4.22703 179.432 -4.64222 H 0 **** 0.053
20853 H 7.14286 180.369 -4.65128 H 0 **** 0.053
20854 H 6.09659 180.467 -6.07184 H 0 **** 0.053
20855 H 7.54742 178.345 -5.93133 H 0 **** 0.053
20856 H 5.80354 178.076 -6.18553 H 0 **** 0.053
20857 H 8.13164 178.602 -2.15401 H 0 **** 0.053
20858 H 12.6388 181.497 -3.03247 H 0 **** 0.053
20859 H 14.6128 182.758 -3.23779 H 0 **** 0.053
20860 H 11.6492 181.875 4.43037 H 0 **** 0.053
20861 H 18.4957 186.621 -3.61507 H 0 **** 0.053
20862 H 16.648 185.431 -4.35287 H 0 **** 0.053
20863 H 18.3367 182.925 -3.97199 H 0 **** 0.053
20864 H 18.4426 183.869 -6.25288 H 0 **** 0.053
20865 H 16.7853 184.464 -6.51217 H 0 **** 0.053
20866 H 17.7428 186.852 -6.21307 H 0 **** 0.053
20867 H 18.2944 186.053 -7.69199 H 0 **** 0.053
20868 H 20.436 185.577 -6.8204 H 0 **** 0.053
20869 H 20.341 184.549 -4.80372 H 0 **** 0.053
20870 H 20.7423 187.279 -3.52667 H 0 **** 0.053
20871 H 21.5494 185.746 -3.11505 H 0 **** 0.053
20872 H 22.6724 185.84 -5.37356 H 0 **** 0.053
20873 H 23.1082 187.247 -4.40609 H 0 **** 0.053
20874 H 22.2128 187.501 -6.98719 H 0 **** 0.053
20875 H 21.912 188.756 -5.79481 H 0 **** 0.053
20876 H 19.7444 188.118 -5.61112 H 0 **** 0.353
20877 H 14.8922 182.25 7.2207 H 0 **** 0.053
20878 H 12.4612 182.734 7.41909 H 0 **** 0.053
20879 H 12.731 185.185 5.65299 H 0 **** 0.053
20880 H 11.4578 184.759 6.78064 H 0 **** 0.053
20881 H 12.532 186.542 7.94523 H 0 **** 0.053
20882 H 14.1275 186.146 7.2926 H 0 **** 0.053
20883 H 12.6411 184.421 9.3502 H 0 **** 0.053
20884 H 13.9139 185.58 9.78772 H 0 **** 0.053
20885 H 14.5604 183.005 9.47698 H 0 **** 0.053
20886 H 15.6426 184.244 8.80381 H 0 **** 0.053
20887 H 17.2906 185.388 5.96356 H 0 **** 0.053
20888 H 19.3463 186.663 5.68237 H 0 **** 0.053
20889 H 20.0246 186.55 -1.75491 H 0 **** 0.053
20890 H 22.3495 187.426 -1.86874 H 0 **** 0.053
20891 H 24.0831 187.764 -0.395223 H 0 **** 0.053
20892 H 23.2641 190.727 -0.584571 H 0 **** 0.053
20893 H 24.1301 188.857 -2.82969 H 0 **** 0.053
20894 H 24.1825 190.628 -2.98935 H 0 **** 0.053
20895 H 21.9694 189.251 -3.73343 H 0 **** 0.053
20896 H 21.8564 190.876 -3.04426 H 0 **** 0.053
20897 H 20.2958 188.976 -2.05722 H 0 **** 0.053
20898 H 21.112 190.027 -0.895185 H 0 **** 0.053
20899 H 3.78992 181.432 -3.16611 H 0 **** 0.053
20900 H 5.18945 183.446 -3.36914 H 0 **** 0.053
20901 H 6.33016 182.604 -4.44471 H 0 **** 0.053
20902 H 6.20189 182.132 -2.73526 H 0 **** 0.053
20903 H 2.94201 181.277 -5.49771 H 0 **** 0.053
20904 H 4.44601 182.005 -6.11017 H 0 **** 0.053
20905 H 3.35042 182.956 -5.07892 H 0 **** 0.053
20906 H 16.3316 181.886 -4.06546 H 0 **** 0.41
20907 H 22.4774 188.561 6.28328 H 0 **** 0.053
20908 H 24.6004 189.527 7.44758 H 0 **** 0.053
20909 H 26.9028 190.602 7.28048 H 0 **** 0.053
20910 H 29.2012 191.731 7.16663 H 0 **** 0.053
20911 H 31.2179 192.585 5.67386 H 0 **** 0.053
20912 H 32.0461 193.051 0.81932 H 0 **** 0.053
20913 H 32.2262 192.977 3.3323 H 0 **** 0.053
20914 H 26.1857 190.631 -2.38231 H 0 **** 0.053
20915 H 28.0194 190.307 -3.12523 H 0 **** 0.053
20916 H 27.9587 192.054 -3.42208 H 0 **** 0.053
20917 H 29.9049 191.079 -4.6217 H 0 **** 0.053
20918 H 30.4608 190.3 -3.13781 H 0 **** 0.053
20919 H 30.2169 193.351 -3.56456 H 0 **** 0.053
20920 H 31.7612 192.472 -3.48923 H 0 **** 0.053
20921 C 76.9776 94.0197 64.8015 C.3 0 **** 0.054
20922 C 76.4021 94.2395 63.3726 C.3 0 **** -0.106
20923 C 77.5419 94.3832 62.3259 C.3 0 **** -0.053
20924 C 78.6781 95.226 62.9536 C.3 0 **** -0.053
20925 C 79.1864 94.5486 64.2618 C.3 0 **** 0.054
20926 O 78.3103 93.5389 64.742 O.3 0 **** -0.32
20927 C 78.2071 96.6873 63.2138 C.3 0 **** -0.053
20928 C 77.2415 97.2232 62.0886 C.3 0 **** 0.107
20929 C 77.4367 96.4355 60.7988 C.3 0 **** -0.106
20930 C 77.0622 94.9537 60.9677 C.3 0 **** -0.106
20931 O 77.4226 98.6071 61.7686 O.3 0 **** -0.32
20932 C 77.6013 99.3745 62.9488 C.3 0 **** 0.107
20933 C 79.0495 99.1225 63.4463 C.3 0 **** -0.053
20934 C 79.4235 97.6191 63.3863 C.3 0 **** -0.106
20935 C 79.3728 99.7015 64.8 C.2 0 **** 0
20936 C 78.2298 99.7156 65.8052 C.3 0 **** 0
20937 C 76.837 99.9536 65.2239 C.3 0 **** 0
20938 C 76.4817 99.1692 63.967 C.3 0 **** -0.053
20939 C 75.7197 99.9453 66.2484 C.3 0 **** 0
20940 C 76.0131 100.929 67.3759 C.3 0 **** 0
20941 C 77.4188 100.579 67.9933 C.3 0 **** 0.16
20942 C 78.5348 100.631 66.9734 C.3 0 **** 0
20943 C 79.9489 100.455 67.5914 C.3 0 **** -0.106
20944 C 80.895 100.883 66.4797 C.3 0 **** -0.106
20945 C 80.5727 100.229 65.1409 C.2 0 **** -0.1268
20946 O 77.8008 101.137 69.2701 O.3 0 **** -0.32
20947 C 76.8268 102.02 69.7847 C.3 0 **** 0.16
20948 C 75.3481 101.508 69.7712 C.3 0 **** 0
20949 C 74.8871 100.86 68.4409 C.3 0 **** 0
20950 C 75.1213 99.6016 63.4863 C.2 0 **** 0
20951 C 74.034 99.2018 64.4435 C.3 0 **** -0.053
20952 C 74.3057 100.121 65.6682 C.3 0 **** 0
20953 C 72.6021 99.4341 64.0136 C.2 0 **** 0
20954 C 72.3779 100.286 62.9795 C.2 0 **** 0
20955 C 73.4859 100.885 62.1269 C.3 0 **** -0.106
20956 C 74.8813 100.371 62.4313 C.2 0 **** -0.1268
20957 C 70.976 100.541 62.4746 C.3 0 **** -0.106
20958 C 70.0071 100.511 63.648 C.3 0 **** -0.106
20959 C 70.2841 99.279 64.4926 C.2 0 **** 0
20960 C 71.5586 98.7879 64.6259 C.2 0 **** 0
20961 C 71.8041 97.591 65.5254 C.3 0 **** -0.106
20962 C 70.5439 96.8073 65.862 C.3 0 **** -0.053
20963 C 69.4591 97.7755 66.3639 C.3 0 **** -0.106
20964 C 69.0802 98.748 65.2415 C.3 0 **** -0.106
20965 C 73.539 101.216 67.801 C.3 0 **** 0.147
20966 C 73.1997 100.162 66.7573 C.3 0 **** -0.053
20967 C 74.3307 102.463 70.4058 C.3 0 **** 0
20968 C 72.8642 102.014 70.3798 C.3 0 **** 0.147
20969 S 72.1056 101.372 68.9065 S.3 0 **** -0.294
20970 C 71.9115 102.911 71.1212 C.3 0 **** -0.053
20971 C 72.4255 103.102 72.5544 C.3 0 **** 0
20972 C 73.8952 103.673 72.5817 C.3 0 **** 0
20973 C 74.8464 102.702 71.8524 C.3 0 **** 0
20974 C 74.3276 103.842 74.0308 C.3 0 **** 0
20975 C 73.3831 104.797 74.7317 C.3 0 **** 0
20976 C 71.8699 104.322 74.7025 C.3 0 **** 0
20977 C 71.4278 104.11 73.2087 C.3 0 **** -0.053
20978 C 71.018 105.455 75.3398 C.3 0 **** 0
20979 C 71.3694 105.495 76.8109 C.3 0 **** 0.16
20980 C 72.8641 105.714 77.0639 C.3 0 **** 0
20981 C 73.8937 105.28 76.061 C.3 0 **** 0
20982 C 76.345 103.097 71.9317 C.3 0 **** 0
20983 C 77.2726 102.117 71.2211 C.3 0 **** -0.053
20984 C 75.8371 104.014 74.3093 C.3 0 **** 0
20985 C 76.8623 103.856 73.1839 C.3 0 **** 0
20986 C 75.3184 104.994 76.536 C.3 0 **** 0
20987 C 76.2901 105.05 75.3423 C.3 0 **** 0
20988 C 73.3421 106.438 78.323 C.3 0 **** 0
20989 C 74.8093 106.058 78.6991 C.3 0 **** 0
20990 C 75.7998 106.091 77.5206 C.3 0 **** 0
20991 O 70.496 106.4 77.4511 O.3 0 **** -0.32
20992 C 69.3707 105.576 77.7517 C.3 0 **** 0.107
20993 C 68.8567 104.865 76.4581 C.3 0 **** -0.053
20994 C 69.4759 105.511 75.2201 C.3 0 **** 0.107
20995 C 67.3231 104.91 76.3889 C.3 0 **** -0.106
20996 C 66.7258 104.675 77.7884 C.3 0 **** -0.106
20997 C 67.0086 105.881 78.7035 C.3 0 **** 0.134
20998 C 68.3844 106.529 78.3925 C.3 0 **** -0.053
20999 C 69.0206 107.184 79.6437 C.3 0 **** -0.106
21000 C 67.9311 107.787 80.521 C.3 0 **** -0.106
21001 C 66.9228 106.69 80.98 C.3 0 **** 0.081
21002 N 66.8677 105.523 80.1007 N.3 0 **** -0.727
21003 C 78.2938 103.573 73.7135 C.3 0 **** 0.16
21004 C 78.6955 104.689 74.665 C.3 0 **** 0.16
21005 C 77.7572 104.665 75.8373 C.3 0 **** 0
21006 O 80.0314 104.629 75.1173 O.3 0 **** -0.32
21007 C 80.9064 104.452 74.0085 C.3 0 **** 0.107
21008 C 80.5396 103.189 73.2912 C.3 0 **** 0.107
21009 O 79.2691 103.398 72.6977 O.3 0 **** -0.32
21010 C 80.5379 101.956 74.2322 C.3 0 **** -0.106
21011 C 81.5301 102.132 75.4177 C.3 0 **** -0.106
21012 C 82.7318 102.993 74.9799 C.3 0 **** -0.106
21013 C 82.3033 104.432 74.5758 C.3 0 **** -0.106
21014 C 77.2701 105.768 78.0432 C.3 0 **** 0
21015 C 78.2451 105.777 76.8227 C.3 0 **** -0.053
21016 C 75.3201 107.063 79.744 C.3 0 **** 0
21017 C 76.7791 106.789 80.1609 C.3 0 **** 0.16
21018 C 77.7566 106.792 79.0525 C.3 0 **** -0.053
21019 C 74.3386 106.938 80.975 C.3 0 **** 0
21020 C 72.8556 107.28 80.5379 C.3 0 **** 0
21021 C 72.4254 106.183 79.551 C.3 0 **** -0.053
21022 O 77.2811 107.595 81.176 O.3 0 **** -0.32
21023 C 76.326 107.67 82.2282 C.3 0 **** 0.16
21024 C 74.8366 108.076 81.8612 C.3 0 **** 0
21025 C 71.8291 107.381 81.7007 C.3 0 **** -0.053
21026 C 72.3981 108.276 82.7994 C.3 0 **** -0.053
21027 C 73.9278 108.049 83.0966 C.3 0 **** 0
21028 C 71.7606 107.959 84.1089 C.3 0 **** -0.053
21029 C 70.2891 107.69 83.9371 C.3 0 **** -0.106
21030 C 70.1234 106.344 83.1738 C.3 0 **** -0.106
21031 C 71.3455 106.036 82.2844 C.3 0 **** -0.106
21032 C 74.4246 109.122 84.0361 C.3 0 **** 0
21033 C 75.9433 109.004 84.3611 C.3 0 **** 0
21034 C 76.8929 108.648 83.2203 C.3 0 **** 0
21035 C 72.0626 109.209 84.9316 C.3 0 **** 0
21036 C 73.5633 109.235 85.2745 C.3 0 **** 0
21037 C 70.8375 95.6299 66.8274 C.3 0 **** -0.053
21038 C 71.1126 96.0854 68.268 C.3 0 **** -0.159
21039 C 69.7042 94.5975 66.8078 C.3 0 **** -0.159
21040 O 68.9349 104.947 74.0329 O.3 0 **** -0.57
21041 C 78.4163 108.952 83.2824 C.3 0 **** -0.053
21042 C 78.9604 109.342 84.6603 C.3 0 **** -0.053
21043 C 77.9867 110.304 85.3644 C.3 0 **** 0
21044 C 76.5503 109.724 85.5507 C.3 0 **** 0
21045 C 75.5169 110.46 86.3854 C.3 0 **** 0
21046 C 76.0354 111.422 87.4132 C.3 0 **** 0
21047 C 77.5722 111.529 87.5785 C.3 0 **** 0
21048 C 78.5577 110.686 86.7338 C.3 0 **** -0.053
21049 C 78.129 112.323 88.7524 C.3 0 **** -0.053
21050 C 77.1442 112.807 89.8392 C.3 0 **** -0.053
21051 C 75.629 112.872 89.4741 C.3 0 **** 0
21052 C 75.1303 111.659 88.647 C.3 0 **** 0
21053 C 73.6224 111.821 88.2092 C.3 0 **** 0
21054 C 73.1576 110.569 87.3734 C.3 0 **** 0
21055 C 74.0118 110.43 86.0967 C.3 0 **** 0
21056 C 72.7402 111.991 89.487 C.3 0 **** 0
21057 C 73.2539 113.245 90.2877 C.3 0 **** -0.053
21058 C 74.7304 113.098 90.7034 C.3 0 **** -0.053
21059 C 71.2106 109.36 86.2088 C.3 0 **** -0.053
21060 C 71.6594 110.73 86.8928 C.3 0 **** 0
21061 C 71.2149 112.189 89.0605 C.3 0 **** 0.02
21062 C 70.7211 111.03 88.1249 C.3 0 **** 0
21063 C 69.2332 111.003 87.7019 C.3 0 **** -0.106
21064 C 68.5053 112.149 88.3457 C.3 0 **** -0.106
21065 C 68.8043 112.188 89.84 C.3 0 **** -0.086
21066 C 70.2329 112.318 90.2218 C.2 0 **** 0.379
21067 O 70.5354 112.588 91.3717 O.2 0 **** -0.419
21068 H 76.3942 93.2664 65.3483 H 0 **** 0.053
21069 H 76.9182 94.9472 65.3918 H 0 **** 0.053
21070 H 75.7395 93.4065 63.0656 H 0 **** 0.053
21071 H 75.7568 95.1375 63.3604 H 0 **** 0.053
21072 H 77.944 93.3704 62.1611 H 0 **** 0.053
21073 H 79.5025 95.2863 62.2193 H 0 **** 0.053
21074 H 79.376 95.2976 65.0503 H 0 **** 0.053
21075 H 80.1423 94.046 64.0778 H 0 **** 0.053
21076 H 77.6707 96.6682 64.1783 H 0 **** 0.053
21077 H 76.1931 97.0666 62.4025 H 0 **** 0.053
21078 H 78.4968 96.5406 60.4999 H 0 **** 0.053
21079 H 76.8423 96.9093 60.0016 H 0 **** 0.053
21080 H 77.4923 94.3744 60.1392 H 0 **** 0.053
21081 H 75.971 94.8483 60.8864 H 0 **** 0.053
21082 H 77.5799 100.42 62.6355 H 0 **** 0.053
21083 H 79.7122 99.639 62.743 H 0 **** 0.053
21084 H 80.0345 97.2853 64.2534 H 0 **** 0.053
21085 H 80.0601 97.4775 62.4952 H 0 **** 0.053
21086 H 76.382 98.1121 64.2567 H 0 **** 0.053
21087 H 80.0564 101.105 68.4823 H 0 **** 0.053
21088 H 80.1154 99.4107 67.9274 H 0 **** 0.053
21089 H 81.9345 100.697 66.761 H 0 **** 0.053
21090 H 80.7803 101.975 66.3447 H 0 **** 0.053
21091 H 81.4078 100.199 64.4479 H 0 **** 0.1268
21092 H 74.189 98.1372 64.7439 H 0 **** 0.053
21093 H 73.4744 102.013 62.2035 H 0 **** 0.053
21094 H 73.279 100.649 61.0488 H 0 **** 0.053
21095 H 75.6683 100.689 61.7535 H 0 **** 0.1268
21096 H 70.9098 101.5 61.9166 H 0 **** 0.053
21097 H 70.7296 99.7352 61.7596 H 0 **** 0.053
21098 H 68.9554 100.534 63.2997 H 0 **** 0.053
21099 H 70.1527 101.41 64.2772 H 0 **** 0.053
21100 H 72.5046 96.911 65.0182 H 0 **** 0.053
21101 H 72.3042 97.9014 66.4632 H 0 **** 0.053
21102 H 70.1787 96.3604 64.9143 H 0 **** 0.053
21103 H 69.846 98.341 67.2267 H 0 **** 0.053
21104 H 68.5633 97.2408 66.7105 H 0 **** 0.053
21105 H 68.4754 99.5878 65.6563 H 0 **** 0.053
21106 H 68.4241 98.2216 64.5123 H 0 **** 0.053
21107 H 72.1613 100.384 66.3312 H 0 **** 0.053
21108 H 70.8253 102.594 71.1059 H 0 **** 0.053
21109 H 70.4188 103.587 73.1981 H 0 **** 0.053
21110 H 78.3606 102.419 71.2168 H 0 **** 0.053
21111 H 69.68 104.823 78.4966 H 0 **** 0.053
21112 H 69.1377 103.792 76.4919 H 0 **** 0.053
21113 H 69.25 106.568 75.2433 H 0 **** 0.053
21114 H 66.9978 105.904 76.0123 H 0 **** 0.053
21115 H 66.9533 104.162 75.6504 H 0 **** 0.053
21116 H 67.1972 103.766 78.1987 H 0 **** 0.053
21117 H 65.643 104.478 77.7428 H 0 **** 0.053
21118 H 66.2404 106.639 78.4816 H 0 **** 0.053
21119 H 68.227 107.325 77.6359 H 0 **** 0.053
21120 H 69.5166 106.394 80.2267 H 0 **** 0.053
21121 H 69.7895 107.921 79.3527 H 0 **** 0.053
21122 H 67.4164 108.562 79.925 H 0 **** 0.053
21123 H 68.3607 108.312 81.3914 H 0 **** 0.053
21124 H 65.9122 107.125 81.0397 H 0 **** 0.053
21125 H 67.1637 106.355 82.004 H 0 **** 0.053
21126 H 67.5882 104.873 80.3424 H 0 **** 0.353
21127 H 80.7527 105.292 73.3313 H 0 **** 0.053
21128 H 81.2521 103.005 72.4912 H 0 **** 0.053
21129 H 79.5298 101.757 74.6533 H 0 **** 0.053
21130 H 80.79 101.03 73.6745 H 0 **** 0.053
21131 H 81.8634 101.147 75.8018 H 0 **** 0.053
21132 H 81.0151 102.628 76.265 H 0 **** 0.053
21133 H 83.1905 102.503 74.1036 H 0 **** 0.053
21134 H 83.5027 103.029 75.7712 H 0 **** 0.053
21135 H 83.0511 104.879 73.8944 H 0 **** 0.053
21136 H 82.2855 105.073 75.4867 H 0 **** 0.053
21137 H 79.2991 105.547 77.2038 H 0 **** 0.053
21138 H 78.8076 106.592 79.3479 H 0 **** 0.053
21139 H 71.342 106.369 79.3037 H 0 **** 0.053
21140 H 70.9741 107.869 81.253 H 0 **** 0.053
21141 H 72.2385 109.33 82.5004 H 0 **** 0.053
21142 H 72.2241 107.076 84.598 H 0 **** 0.053
21143 H 69.8446 108.522 83.3597 H 0 **** 0.053
21144 H 69.7252 107.628 84.8932 H 0 **** 0.053
21145 H 69.2155 106.384 82.5392 H 0 **** 0.053
21146 H 69.9546 105.523 83.8967 H 0 **** 0.053
21147 H 71.0718 105.303 81.5038 H 0 **** 0.053
21148 H 72.1547 105.582 82.8714 H 0 **** 0.053
21149 H 71.7472 95.1211 66.4554 H 0 **** 0.053
21150 H 71.4304 95.2359 68.8935 H 0 **** 0.053
21151 H 70.2052 96.5153 68.7227 H 0 **** 0.053
21152 H 71.905 96.8491 68.3215 H 0 **** 0.053
21153 H 69.5303 94.2153 65.7893 H 0 **** 0.053
21154 H 68.7615 95.0398 67.1663 H 0 **** 0.053
21155 H 69.9402 93.7366 67.4522 H 0 **** 0.053
21156 H 69.3699 105.4 73.3124 H 0 **** 0.41
21157 H 79.0775 108.328 82.6183 H 0 **** 0.053
21158 H 80.004 109.757 84.59 H 0 **** 0.053
21159 H 79.5907 111.128 86.6951 H 0 **** 0.053
21160 H 79.2342 112.475 88.8469 H 0 **** 0.053
21161 H 77.5344 113.565 90.5633 H 0 **** 0.053
21162 H 72.6291 113.465 91.1946 H 0 **** 0.053
21163 H 75.1 113.945 91.326 H 0 **** 0.053
21164 H 70.0887 109.392 85.959 H 0 **** 0.053
21165 H 69.1244 111.028 86.6033 H 0 **** 0.053
21166 H 68.8817 110.034 88.0524 H 0 **** 0.053
21167 H 67.4339 112.05 88.1808 H 0 **** 0.053
21168 H 68.8205 113.097 87.863 H 0 **** 0.053
21169 H 68.5043 111.256 90.3252 H 0 **** 0.053
21170 H 68.3721 113.029 90.3782 H 0 **** 0.053
21171 C 20.7463 129.311 38.1505 C.3 0 **** 0.054
21172 C 19.4664 130.11 38.5316 C.3 0 **** -0.106
21173 C 18.286 129.153 38.8572 C.3 0 **** -0.053
21174 C 18.3193 127.976 37.8526 C.3 0 **** -0.053
21175 C 19.6904 127.24 37.9367 C.3 0 **** 0.054
21176 O 20.6774 127.982 38.6392 O.3 0 **** -0.32
21177 C 18.0259 128.472 36.4059 C.3 0 **** -0.053
21178 C 16.9506 129.624 36.3658 C.3 0 **** 0.107
21179 C 16.0874 129.591 37.621 C.3 0 **** -0.106
21180 C 16.9097 129.863 38.8917 C.3 0 **** -0.106
21181 O 16.0639 129.562 35.2432 O.3 0 **** -0.32
21182 C 16.7772 129.242 34.059 C.3 0 **** 0.107
21183 C 17.0955 127.724 34.1108 C.3 0 **** -0.053
21184 C 17.6015 127.29 35.5108 C.3 0 **** -0.106
21185 C 18.0189 127.224 33.0291 C.2 0 **** 0
21186 C 19.0976 128.199 32.5768 C.3 0 **** 0
21187 C 18.7009 129.674 32.5737 C.3 0 **** 0
21188 C 17.9535 130.181 33.8011 C.3 0 **** -0.053
21189 C 19.8024 130.619 32.1346 C.3 0 **** 0
21190 C 20.3616 130.203 30.7783 C.3 0 **** 0
21191 C 20.835 128.704 30.8691 C.3 0 **** 0.16
21192 C 19.7196 127.763 31.2658 C.3 0 **** 0
21193 C 20.1195 126.263 31.1974 C.3 0 **** -0.106
21194 C 18.7945 125.521 31.2878 C.3 0 **** -0.106
21195 C 17.9152 126.013 32.432 C.2 0 **** -0.1268
21196 O 21.6872 128.158 29.8382 O.3 0 **** -0.32
21197 C 21.9419 129.083 28.8031 C.3 0 **** 0.16
21198 C 22.3773 130.52 29.2449 C.3 0 **** 0
21199 C 21.5254 131.147 30.3769 C.3 0 **** 0
21200 C 17.5612 131.619 33.5815 C.2 0 **** 0
21201 C 18.7594 132.524 33.5264 C.3 0 **** -0.053
21202 C 19.4358 132.112 32.1874 C.3 0 **** 0
21203 C 18.5084 134.014 33.4652 C.2 0 **** 0
21204 C 17.2652 134.437 33.116 C.2 0 **** 0
21205 C 16.0716 133.508 32.9515 C.3 0 **** -0.106
21206 C 16.3352 132.057 33.3186 C.2 0 **** -0.1268
21207 C 16.9334 135.911 33.0643 C.3 0 **** -0.106
21208 C 18.1533 136.684 32.5852 C.3 0 **** -0.106
21209 C 19.3738 136.221 33.3612 C.2 0 **** 0
21210 C 19.4913 134.918 33.7779 C.2 0 **** 0
21211 C 20.7518 134.479 34.4988 C.3 0 **** -0.106
21212 C 21.5787 135.633 35.0476 C.3 0 **** -0.053
21213 C 21.8038 136.674 33.9374 C.3 0 **** -0.106
21214 C 20.457 137.268 33.5104 C.3 0 **** -0.106
21215 C 21.0209 132.593 30.2919 C.3 0 **** 0.147
21216 C 20.5732 133.038 31.6767 C.3 0 **** -0.053
21217 C 22.7168 131.473 28.0938 C.3 0 **** 0
21218 C 23.1143 132.902 28.4844 C.3 0 **** 0.147
21219 S 22.1764 133.846 29.6614 S.3 0 **** -0.294
21220 C 23.5598 133.771 27.3415 C.3 0 **** -0.053
21221 C 24.6843 133.053 26.5834 C.3 0 **** 0
21222 C 24.2384 131.626 26.0816 C.3 0 **** 0
21223 C 23.8322 130.752 27.286 C.3 0 **** 0
21224 C 25.3995 130.985 25.3358 C.3 0 **** 0
21225 C 25.7852 131.855 24.1568 C.3 0 **** 0
21226 C 26.1976 133.33 24.5717 C.3 0 **** 0
21227 C 25.0159 133.986 25.3755 C.3 0 **** -0.053
21228 C 26.4384 134.128 23.2595 C.3 0 **** 0
21229 C 27.6852 133.557 22.6203 C.3 0 **** 0.16
21230 C 27.5818 132.054 22.3451 C.3 0 **** 0
21231 C 26.697 131.171 23.1768 C.3 0 **** 0
21232 C 23.5009 129.28 26.9231 C.3 0 **** 0
21233 C 23.1185 128.427 28.1277 C.3 0 **** -0.053
21234 C 25.3362 129.46 25.0931 C.3 0 **** 0
21235 C 24.2278 128.614 25.724 C.3 0 **** 0
21236 C 27.0124 129.677 23.2678 C.3 0 **** 0
21237 C 25.7632 128.905 23.7314 C.3 0 **** 0
21238 C 28.3366 131.423 21.1742 C.3 0 **** 0
21239 C 28.5958 129.899 21.3936 C.3 0 **** 0
21240 C 27.3662 129.104 21.8711 C.3 0 **** 0
21241 O 28.0262 134.364 21.5146 O.3 0 **** -0.32
21242 C 28.8159 135.388 22.1176 C.3 0 **** 0.107
21243 C 28.0308 136.06 23.2901 C.3 0 **** -0.053
21244 C 26.5553 135.671 23.2283 C.3 0 **** 0.107
21245 C 28.1959 137.587 23.2477 C.3 0 **** -0.106
21246 C 29.6438 137.949 22.8697 C.3 0 **** -0.106
21247 C 29.922 137.588 21.3985 C.3 0 **** 0.134
21248 C 29.1555 136.31 20.9649 C.3 0 **** -0.053
21249 C 29.906 135.521 19.8631 C.3 0 **** -0.106
21250 C 30.6187 136.491 18.9291 C.3 0 **** -0.106
21251 C 31.6441 137.362 19.717 C.3 0 **** 0.081
21252 N 31.3451 137.495 21.1417 N.3 0 **** -0.727
21253 C 24.5904 127.106 25.7903 C.3 0 **** 0.16
21254 C 24.9196 126.617 24.3884 C.3 0 **** 0.16
21255 C 26.1308 127.362 23.9051 C.3 0 **** 0
21256 O 25.136 125.226 24.2822 O.3 0 **** -0.32
21257 C 24.0745 124.524 24.9203 C.3 0 **** 0.107
21258 C 24.0103 124.935 26.3591 C.3 0 **** 0.107
21259 O 23.5954 126.291 26.3897 O.3 0 **** -0.32
21260 C 25.3626 124.732 27.0904 C.3 0 **** -0.106
21261 C 26.1943 123.578 26.4591 C.3 0 **** -0.106
21262 C 25.2544 122.501 25.8812 C.3 0 **** -0.106
21263 C 24.3676 123.057 24.7309 C.3 0 **** -0.106
21264 C 27.7326 127.557 21.9776 C.3 0 **** 0
21265 C 26.4778 126.783 22.4943 C.3 0 **** -0.053
21266 C 29.0365 129.283 20.0555 C.3 0 **** 0
21267 C 29.29 127.766 20.1612 C.3 0 **** 0.16
21268 C 28.138 126.972 20.6372 C.3 0 **** -0.053
21269 C 30.3494 130.056 19.6395 C.3 0 **** 0
21270 C 30.0543 131.604 19.481 C.3 0 **** 0
21271 C 29.6899 132.127 20.879 C.3 0 **** -0.053
21272 O 29.7877 127.153 19.0173 O.3 0 **** -0.32
21273 C 30.853 127.938 18.4931 C.3 0 **** 0.16
21274 C 30.5956 129.484 18.247 C.3 0 **** 0
21275 C 31.2198 132.443 18.8865 C.3 0 **** -0.053
21276 C 31.7451 131.756 17.6277 C.3 0 **** -0.053
21277 C 31.8603 130.189 17.7413 C.3 0 **** 0
21278 C 33.1523 132.168 17.3603 C.3 0 **** -0.053
21279 C 33.345 133.633 17.6479 C.3 0 **** -0.106
21280 C 33.2416 133.849 19.1852 C.3 0 **** -0.106
21281 C 32.3753 132.765 19.8586 C.3 0 **** -0.106
21282 C 32.1811 129.607 16.3852 C.3 0 **** 0
21283 C 32.2765 128.052 16.3862 C.3 0 **** 0
21284 C 31.2507 127.272 17.2043 C.3 0 **** 0
21285 C 33.3266 131.804 15.888 C.3 0 **** 0
21286 C 33.3831 130.271 15.7516 C.3 0 **** 0
21287 C 22.8828 135.137 35.7244 C.3 0 **** -0.053
21288 C 23.9431 134.666 34.7181 C.3 0 **** -0.159
21289 C 23.4724 136.209 36.6495 C.3 0 **** -0.159
21290 O 25.8092 136.36 24.2223 O.3 0 **** -0.57
21291 C 30.9351 125.775 16.9301 C.3 0 **** -0.053
21292 C 31.9226 125.046 16.0148 C.3 0 **** -0.053
21293 C 32.3172 125.944 14.8297 C.3 0 **** 0
21294 C 32.9512 127.304 15.2512 C.3 0 **** 0
21295 C 33.5575 128.232 14.2141 C.3 0 **** 0
21296 C 34.0089 127.607 12.9276 C.3 0 **** 0
21297 C 33.8472 126.073 12.7813 C.3 0 **** 0
21298 C 33.2962 125.189 13.9256 C.3 0 **** -0.053
21299 C 34.5145 125.375 11.6044 C.3 0 **** -0.053
21300 C 35.417 126.211 10.6729 C.3 0 **** -0.053
21301 C 35.3186 127.766 10.7403 C.3 0 **** 0
21302 C 35.1588 128.324 12.1788 C.3 0 **** 0
21303 C 34.9392 129.888 12.1827 C.3 0 **** 0
21304 C 34.7806 130.414 13.6593 C.3 0 **** 0
21305 C 33.5564 129.761 14.3329 C.3 0 **** 0
21306 C 36.1568 130.569 11.481 C.3 0 **** 0
21307 C 36.2764 130 10.0177 C.3 0 **** -0.053
21308 C 36.4743 128.471 10.0078 C.3 0 **** -0.053
21309 C 34.5464 132.456 15.2044 C.3 0 **** -0.053
21310 C 34.5232 131.974 13.683 C.3 0 **** 0
21311 C 35.9372 132.15 11.4482 C.3 0 **** 0.02
21312 C 35.655 132.725 12.8811 C.3 0 **** 0
21313 C 35.525 134.257 13.0515 C.3 0 **** -0.106
21314 C 35.7466 134.932 11.7273 C.3 0 **** -0.106
21315 C 37.0229 134.409 11.0782 C.3 0 **** -0.086
21316 C 37.0824 132.947 10.8293 C.2 0 **** 0.379
21317 O 37.9538 132.484 10.1134 O.2 0 **** -0.419
21318 H 21.6407 129.766 38.5975 H 0 **** 0.053
21319 H 20.9028 129.324 37.0607 H 0 **** 0.053
21320 H 19.6405 130.77 39.4036 H 0 **** 0.053
21321 H 19.1885 130.792 37.7069 H 0 **** 0.053
21322 H 18.4912 128.732 39.8549 H 0 **** 0.053
21323 H 17.5038 127.278 38.1186 H 0 **** 0.053
21324 H 20.0586 126.968 36.9322 H 0 **** 0.053
21325 H 19.5794 126.3 38.489 H 0 **** 0.053
21326 H 18.9847 128.852 36.0127 H 0 **** 0.053
21327 H 17.4646 130.603 36.3577 H 0 **** 0.053
21328 H 15.6062 128.596 37.6703 H 0 **** 0.053
21329 H 15.2722 130.323 37.5089 H 0 **** 0.053
21330 H 16.3365 129.537 39.7708 H 0 **** 0.053
21331 H 17.0549 130.947 38.9999 H 0 **** 0.053
21332 H 16.0685 129.362 33.2371 H 0 **** 0.053
21333 H 16.1455 127.203 33.9457 H 0 **** 0.053
21334 H 18.4189 126.538 35.467 H 0 **** 0.053
21335 H 16.7586 126.792 36.0217 H 0 **** 0.053
21336 H 18.6653 130.183 34.6407 H 0 **** 0.053
21337 H 20.6335 126.051 30.2391 H 0 **** 0.053
21338 H 20.8247 125.996 32.0118 H 0 **** 0.053
21339 H 18.9571 124.443 31.3609 H 0 **** 0.053
21340 H 18.242 125.708 30.3485 H 0 **** 0.053
21341 H 17.1724 125.294 32.7628 H 0 **** 0.1268
21342 H 19.4429 132.273 34.3731 H 0 **** 0.053
21343 H 15.6819 133.56 31.8911 H 0 **** 0.053
21344 H 15.2321 133.879 33.6058 H 0 **** 0.053
21345 H 15.4721 131.398 33.3235 H 0 **** 0.1268
21346 H 16.0482 136.108 32.4215 H 0 **** 0.053
21347 H 16.6634 136.225 34.0885 H 0 **** 0.053
21348 H 17.9996 137.777 32.6875 H 0 **** 0.053
21349 H 18.3235 136.487 31.5094 H 0 **** 0.053
21350 H 20.4652 133.833 35.3417 H 0 **** 0.053
21351 H 21.3853 133.857 33.8378 H 0 **** 0.053
21352 H 20.9715 136.117 35.8399 H 0 **** 0.053
21353 H 22.2825 136.187 33.0727 H 0 **** 0.053
21354 H 22.4786 137.478 34.2625 H 0 **** 0.053
21355 H 20.5798 137.842 32.5625 H 0 **** 0.053
21356 H 20.1248 138.002 34.2787 H 0 **** 0.053
21357 H 20.2663 134.139 31.6312 H 0 **** 0.053
21358 H 23.8515 134.83 27.6142 H 0 **** 0.053
21359 H 25.3838 134.958 25.8356 H 0 **** 0.053
21360 H 22.8161 127.368 27.8761 H 0 **** 0.053
21361 H 29.7447 134.932 22.4995 H 0 **** 0.053
21362 H 28.4584 135.726 24.2577 H 0 **** 0.053
21363 H 26.1766 135.942 22.2526 H 0 **** 0.053
21364 H 27.5005 138.014 22.4928 H 0 **** 0.053
21365 H 27.9012 138.029 24.227 H 0 **** 0.053
21366 H 30.3108 137.377 23.5353 H 0 **** 0.053
21367 H 29.8574 139.015 23.046 H 0 **** 0.053
21368 H 29.5335 138.417 20.7853 H 0 **** 0.053
21369 H 28.174 136.62 20.5512 H 0 **** 0.053
21370 H 30.6751 134.904 20.3499 H 0 **** 0.053
21371 H 29.218 134.843 19.3282 H 0 **** 0.053
21372 H 29.847 137.128 18.4605 H 0 **** 0.053
21373 H 31.1141 135.959 18.0991 H 0 **** 0.053
21374 H 31.6803 138.371 19.2767 H 0 **** 0.053
21375 H 32.662 136.95 19.6019 H 0 **** 0.053
21376 H 31.7149 136.715 21.6479 H 0 **** 0.353
21377 H 23.1455 124.821 24.4339 H 0 **** 0.053
21378 H 23.2543 124.347 26.8722 H 0 **** 0.053
21379 H 25.9842 125.652 27.0774 H 0 **** 0.053
21380 H 25.2039 124.524 28.1697 H 0 **** 0.053
21381 H 26.892 123.143 27.2031 H 0 **** 0.053
21382 H 26.8323 123.98 25.6465 H 0 **** 0.053
21383 H 24.5967 122.16 26.6993 H 0 **** 0.053
21384 H 25.8256 121.62 25.5359 H 0 **** 0.053
21385 H 23.4526 122.446 24.6213 H 0 **** 0.053
21386 H 24.923 122.966 23.7692 H 0 **** 0.053
21387 H 26.746 125.673 22.5666 H 0 **** 0.053
21388 H 28.3168 125.879 20.7172 H 0 **** 0.053
21389 H 29.5652 133.243 20.7914 H 0 **** 0.053
21390 H 30.7541 133.379 18.6111 H 0 **** 0.053
21391 H 31.0678 132.011 16.7892 H 0 **** 0.053
21392 H 33.8807 131.592 17.9702 H 0 **** 0.053
21393 H 32.5551 134.202 17.121 H 0 **** 0.053
21394 H 34.3182 134.04 17.2964 H 0 **** 0.053
21395 H 32.8014 134.844 19.394 H 0 **** 0.053
21396 H 34.2555 133.864 19.629 H 0 **** 0.053
21397 H 32.021 133.119 20.8434 H 0 **** 0.053
21398 H 32.9592 131.854 20.044 H 0 **** 0.053
21399 H 22.6133 134.272 36.3595 H 0 **** 0.053
21400 H 24.8034 134.215 35.2379 H 0 **** 0.053
21401 H 24.3191 135.513 34.1206 H 0 **** 0.053
21402 H 23.5494 133.913 34.0168 H 0 **** 0.053
21403 H 22.7443 136.518 37.416 H 0 **** 0.053
21404 H 23.7627 137.105 36.0798 H 0 **** 0.053
21405 H 24.3675 135.835 37.17 H 0 **** 0.053
21406 H 24.9071 136.063 24.1186 H 0 **** 0.41
21407 H 30.4921 125.194 17.7872 H 0 **** 0.053
21408 H 31.5226 124.047 15.688 H 0 **** 0.053
21409 H 32.9111 124.199 13.5605 H 0 **** 0.053
21410 H 34.336 124.284 11.4299 H 0 **** 0.053
21411 H 35.7107 125.745 9.70196 H 0 **** 0.053
21412 H 37.0987 130.488 9.42981 H 0 **** 0.053
21413 H 36.6239 128.052 8.98632 H 0 **** 0.053
21414 H 34.4886 133.603 15.2563 H 0 **** 0.053
21415 H 34.547 134.535 13.4823 H 0 **** 0.053
21416 H 36.295 134.503 13.781 H 0 **** 0.053
21417 H 35.8112 136.01 11.8648 H 0 **** 0.053
21418 H 34.8726 134.742 11.0718 H 0 **** 0.053
21419 H 37.8903 134.585 11.7194 H 0 **** 0.053
21420 H 37.2283 134.794 10.0819 H 0 **** 0.053
21421 C 127.152 176.76 79.5049 C.2 0 **** 0
21422 C 126.51 175.568 79.2054 C.2 0 **** 0
21423 C 125.625 175.506 78.1409 C.2 0 **** 0
21424 C 125.406 176.631 77.3847 C.2 0 **** 0
21425 C 126.087 177.814 77.6453 C.2 0 **** 0
21426 C 126.97 177.873 78.7036 C.2 0 **** 0
21427 C 124.427 176.601 76.2288 C.3 0 **** -0.106
21428 C 123.57 175.358 76.0279 C.2 0 **** 0
21429 C 123.782 174.234 76.7776 C.2 0 **** 0
21430 C 124.9 174.203 77.817 C.3 0 **** -0.106
21431 C 122.962 173.117 76.5904 C.2 0 **** 0
21432 C 121.895 173.151 75.7148 C.2 0 **** 0
21433 C 121.744 174.253 74.8815 C.2 0 **** 0
21434 C 122.567 175.374 75.0437 C.2 0 **** 0
21435 C 122.379 176.496 74.2516 C.2 0 **** -0.1268
21436 C 121.329 176.661 73.372 C.2 0 **** 0
21437 C 120.417 175.548 73.3403 C.2 0 **** 0
21438 C 120.761 174.314 73.898 C.2 0 **** 0.042
21439 C 119.149 175.627 72.4666 C.3 0 **** 0
21440 C 118.927 176.883 71.6197 C.3 0 **** 0
21441 C 120.072 177.914 71.5529 C.2 0 **** 0
21442 C 121.201 177.807 72.4295 C.2 0 **** 0
21443 C 117.445 177.268 71.4239 C.3 0 **** -0.106
21444 C 116.661 177.217 72.739 C.3 0 **** -0.053
21445 C 116.666 175.785 73.3573 C.3 0 **** -0.053
21446 C 117.84 174.902 72.8601 C.3 0 **** -0.106
21447 C 122.227 178.753 72.2328 C.2 0 **** 0.042
21448 C 122.115 179.73 71.2664 C.2 0 **** 0.052
21449 C 121.018 179.783 70.4191 C.2 0 **** 0.052
21450 C 120.033 178.838 70.5243 C.2 0 **** 0.042
21451 C 120.874 180.833 69.3485 C.2 0 **** 0.367
21452 C 121.981 181.83 69.2429 C.2 0 **** 0
21453 C 123.049 181.775 70.0467 C.2 0 **** 0
21454 C 123.211 180.752 71.1071 C.2 0 **** 0.367
21455 C 124.16 182.796 69.9407 C.3 0 **** -0.106
21456 C 123.548 184.171 69.573 C.3 0 **** -0.106
21457 C 122.661 184.062 68.333 C.2 0 **** 0
21458 C 121.868 182.902 68.1739 C.2 0 **** 0.2405
21459 N 121.04 182.742 67.1204 N.2 0 **** -0.481
21460 C 120.91 183.753 66.2678 C.2 0 **** 0.2405
21461 C 121.696 184.925 66.356 C.2 0 **** 0
21462 C 122.582 185.061 67.3949 C.2 0 **** 0
21463 C 123.438 186.312 67.5521 C.3 0 **** -0.106
21464 C 123.491 187.161 66.2762 C.3 0 **** -0.106
21465 C 122.096 187.317 65.6805 C.3 0 **** -0.106
21466 C 121.56 185.939 65.2473 C.3 0 **** -0.053
21467 C 120.08 186.026 64.7898 C.3 0 **** -0.106
21468 C 119.564 184.649 64.4695 C.2 0 **** 0
21469 C 119.97 183.548 65.2264 C.2 0 **** 0
21470 C 119.437 182.279 64.9378 C.2 0 **** -0.1268
21471 C 118.501 182.144 63.9311 C.2 0 **** -0.1268
21472 C 118.062 183.236 63.2048 C.2 0 **** 0
21473 C 118.586 184.497 63.4917 C.2 0 **** 0
21474 C 127.756 179.132 78.9686 C.3 0 **** -0.106
21475 C 126.939 180.129 79.8168 C.3 0 **** -0.159
21476 C 128.051 176.831 80.7114 C.3 0 **** -0.159
21477 C 125.805 179.003 76.7563 C.3 0 **** -0.159
21478 C 126.766 174.337 80.0402 C.3 0 **** -0.159
21479 C 123.26 171.874 77.4297 C.3 0 **** -0.159
21480 C 120.949 171.973 75.7354 C.3 0 **** -0.159
21481 O 120.062 173.202 73.5225 O.3 0 **** -0.452
21482 C 115.4 174.98 73.0568 C.3 0 **** -0.159
21483 C 115.257 177.77 72.4685 C.3 0 **** -0.159
21484 O 118.979 178.762 69.6541 O.3 0 **** -0.452
21485 O 123.353 178.709 72.9883 O.3 0 **** -0.452
21486 O 124.177 180.736 71.8004 O.2 0 **** -0.419
21487 O 119.898 180.879 68.6582 O.2 0 **** -0.419
21488 C 118.076 185.707 62.7277 C.3 0 **** -0.159
21489 C 117.009 183.014 62.1373 C.3 0 **** -0.159
21490 H 123.732 177.462 76.365 H 0 **** 0.053
21491 H 124.992 176.794 75.2846 H 0 **** 0.053
21492 H 125.664 173.458 77.4873 H 0 **** 0.053
21493 H 124.469 173.811 78.7648 H 0 **** 0.053
21494 H 123.096 177.271 74.404 H 0 **** 0.1268
21495 H 117.345 178.269 70.9997 H 0 **** 0.053
21496 H 117.036 176.551 70.7086 H 0 **** 0.053
21497 H 117.158 177.898 73.4534 H 0 **** 0.053
21498 H 116.756 175.9 74.4456 H 0 **** 0.053
21499 H 117.539 174.397 71.9376 H 0 **** 0.053
21500 H 118.024 174.127 73.6138 H 0 **** 0.053
21501 H 124.738 182.895 70.8775 H 0 **** 0.053
21502 H 124.869 182.464 69.163 H 0 **** 0.053
21503 H 124.386 184.88 69.4524 H 0 **** 0.053
21504 H 122.962 184.543 70.44 H 0 **** 0.053
21505 H 123.033 186.931 68.3757 H 0 **** 0.053
21506 H 124.477 186.059 67.8298 H 0 **** 0.053
21507 H 124.147 186.674 65.5298 H 0 **** 0.053
21508 H 123.94 188.149 66.4877 H 0 **** 0.053
21509 H 122.104 188.006 64.8143 H 0 **** 0.053
21510 H 121.416 187.759 66.4325 H 0 **** 0.053
21511 H 122.17 185.602 64.374 H 0 **** 0.053
21512 H 119.474 186.482 65.6059 H 0 **** 0.053
21513 H 120.021 186.726 63.9283 H 0 **** 0.053
21514 H 119.751 181.394 65.5064 H 0 **** 0.1268
21515 H 118.085 181.146 63.713 H 0 **** 0.1268
21516 H 128.076 179.629 78.0323 H 0 **** 0.053
21517 H 128.711 178.927 79.4844 H 0 **** 0.053
21518 H 126.647 179.683 80.782 H 0 **** 0.053
21519 H 126.018 180.441 79.2963 H 0 **** 0.053
21520 H 127.518 181.048 80.0393 H 0 **** 0.053
21521 H 127.741 176.142 81.5215 H 0 **** 0.053
21522 H 128.053 177.829 81.188 H 0 **** 0.053
21523 H 129.107 176.585 80.4597 H 0 **** 0.053
21524 H 124.738 179.314 76.8167 H 0 **** 0.053
21525 H 126.018 178.781 75.6885 H 0 **** 0.053
21526 H 126.381 179.909 76.9934 H 0 **** 0.053
21527 H 126.583 173.389 79.4982 H 0 **** 0.053
21528 H 126.122 174.316 80.9476 H 0 **** 0.053
21529 H 127.817 174.267 80.3793 H 0 **** 0.053
21530 H 123.012 170.937 76.9017 H 0 **** 0.053
21531 H 122.699 171.879 78.3924 H 0 **** 0.053
21532 H 124.338 171.764 77.6868 H 0 **** 0.053
21533 H 119.884 172.29 75.6761 H 0 **** 0.053
21534 H 120.974 171.366 76.6814 H 0 **** 0.053
21535 H 121.127 171.249 74.8986 H 0 **** 0.053
21536 H 119.624 173.372 72.6848 H 0 **** 0.41
21537 H 114.509 175.443 73.4996 H 0 **** 0.053
21538 H 115.483 173.959 73.4762 H 0 **** 0.053
21539 H 115.239 174.874 71.9657 H 0 **** 0.053
21540 H 115.313 178.813 72.1032 H 0 **** 0.053
21541 H 114.644 177.773 73.3821 H 0 **** 0.053
21542 H 114.731 177.183 71.6901 H 0 **** 0.053
21543 H 119.008 179.539 69.0753 H 0 **** 0.41
21544 H 123.938 179.445 72.7564 H 0 **** 0.41
21545 H 117.783 186.525 63.4126 H 0 **** 0.053
21546 H 117.177 185.499 62.116 H 0 **** 0.053
21547 H 118.842 186.106 62.0315 H 0 **** 0.053
21548 H 116.071 183.552 62.3657 H 0 **** 0.053
21549 H 116.74 181.948 62.0341 H 0 **** 0.053
21550 H 117.354 183.348 61.1433 H 0 **** 0.053
21551 C 129.484 168.6 90.3566 C.2 0 **** 0
21552 C 130.776 168.098 90.3346 C.2 0 **** 0
21553 C 131.854 168.951 90.5082 C.2 0 **** 0
21554 C 131.624 170.289 90.7153 C.2 0 **** 0
21555 C 130.33 170.79 90.7938 C.2 0 **** 0
21556 C 129.258 169.938 90.6235 C.2 0 **** 0
21557 C 132.782 171.251 90.8856 C.3 0 **** -0.106
21558 C 134.197 170.739 90.6561 C.2 0 **** 0
21559 C 134.435 169.408 90.4483 C.2 0 **** 0
21560 C 133.28 168.409 90.4658 C.3 0 **** -0.106
21561 C 135.742 168.97 90.2132 C.2 0 **** 0
21562 C 136.789 169.865 90.1122 C.2 0 **** 0
21563 C 136.565 171.201 90.4237 C.2 0 **** 0
21564 C 135.265 171.653 90.6794 C.2 0 **** 0
21565 C 135.032 172.996 90.9337 C.2 0 **** -0.1268
21566 C 135.987 173.986 90.8258 C.2 0 **** 0
21567 C 137.28 173.503 90.415 C.2 0 **** 0
21568 C 137.59 172.141 90.452 C.2 0 **** 0.042
21569 C 138.424 174.507 90.1684 C.3 0 **** 0
21570 C 138.154 175.993 90.4178 C.3 0 **** 0
21571 C 136.811 176.378 91.0698 C.2 0 **** 0
21572 C 135.77 175.404 91.224 C.2 0 **** 0
21573 C 138.935 176.948 89.4906 C.3 0 **** -0.106
21574 C 138.87 176.505 88.0256 C.3 0 **** -0.053
21575 C 139.491 175.09 87.8225 C.3 0 **** -0.053
21576 C 139.531 174.241 89.1206 C.3 0 **** -0.106
21577 C 134.614 175.839 91.9032 C.2 0 **** 0.042
21578 C 134.504 177.136 92.3573 C.2 0 **** 0.052
21579 C 135.545 178.041 92.2133 C.2 0 **** 0.052
21580 C 136.716 177.64 91.6277 C.2 0 **** 0.042
21581 C 135.457 179.46 92.7095 C.2 0 **** 0.367
21582 C 134.177 179.854 93.3693 C.2 0 **** 0
21583 C 133.174 178.982 93.5256 C.2 0 **** 0
21584 C 133.238 177.581 93.044 C.2 0 **** 0.367
21585 C 131.877 179.393 94.1843 C.3 0 **** -0.106
21586 C 131.561 180.862 93.8056 C.3 0 **** -0.106
21587 C 132.75 181.773 94.1117 C.2 0 **** 0
21588 C 134.053 181.278 93.8819 C.2 0 **** 0.2405
21589 N 135.153 182.03 94.1024 N.2 0 **** -0.481
21590 C 134.981 183.299 94.4584 C.2 0 **** 0.2405
21591 C 133.705 183.844 94.7325 C.2 0 **** 0
21592 C 132.592 183.059 94.5651 C.2 0 **** 0
21593 C 131.191 183.601 94.8237 C.3 0 **** -0.106
21594 C 131.197 184.904 95.6331 C.3 0 **** -0.106
21595 C 132.248 185.865 95.0894 C.3 0 **** -0.106
21596 C 133.651 185.253 95.2666 C.3 0 **** -0.053
21597 C 134.737 186.121 94.5777 C.3 0 **** -0.106
21598 C 136.077 185.442 94.6873 C.2 0 **** 0
21599 C 136.174 184.052 94.6029 C.2 0 **** 0
21600 C 137.441 183.445 94.6604 C.2 0 **** -0.1268
21601 C 138.571 184.231 94.7703 C.2 0 **** -0.1268
21602 C 138.486 185.612 94.8116 C.2 0 **** 0
21603 C 137.231 186.216 94.7513 C.2 0 **** 0
21604 C 127.848 170.455 90.757 C.3 0 **** -0.106
21605 C 127.352 171.068 89.4302 C.3 0 **** -0.159
21606 C 128.328 167.672 90.0898 C.3 0 **** -0.159
21607 C 130.159 172.271 91.0425 C.3 0 **** -0.159
21608 C 131.015 166.624 90.1137 C.3 0 **** -0.159
21609 C 135.96 167.469 90.0202 C.3 0 **** -0.159
21610 C 138.12 169.317 89.6531 C.3 0 **** -0.159
21611 O 138.903 171.762 90.4287 O.3 0 **** -0.452
21612 C 140.934 175.117 87.3144 C.3 0 **** -0.159
21613 C 139.53 177.598 87.1768 C.3 0 **** -0.159
21614 O 137.822 178.443 91.5515 O.3 0 **** -0.452
21615 O 133.591 174.978 92.1331 O.3 0 **** -0.452
21616 O 132.326 176.837 93.2009 O.2 0 **** -0.419
21617 O 136.355 180.231 92.5356 O.2 0 **** -0.419
21618 C 137.134 187.733 94.7514 C.3 0 **** -0.159
21619 C 139.772 186.408 94.9001 C.3 0 **** -0.159
21620 H 132.616 172.093 90.1749 H 0 **** 0.053
21621 H 132.728 171.686 91.9136 H 0 **** 0.053
21622 H 133.416 167.732 91.3433 H 0 **** 0.053
21623 H 133.373 167.771 89.5595 H 0 **** 0.053
21624 H 134.021 173.232 91.181 H 0 **** 0.1268
21625 H 138.558 177.97 89.5611 H 0 **** 0.053
21626 H 139.968 176.939 89.8456 H 0 **** 0.053
21627 H 137.805 176.454 87.7368 H 0 **** 0.053
21628 H 138.871 174.564 87.0847 H 0 **** 0.053
21629 H 140.455 174.462 89.6626 H 0 **** 0.053
21630 H 139.564 173.183 88.8341 H 0 **** 0.053
21631 H 131.027 178.752 93.8879 H 0 **** 0.053
21632 H 131.988 179.287 95.2774 H 0 **** 0.053
21633 H 130.639 181.147 94.3413 H 0 **** 0.053
21634 H 131.307 180.903 92.725 H 0 **** 0.053
21635 H 130.686 183.784 93.8562 H 0 **** 0.053
21636 H 130.569 182.87 95.3704 H 0 **** 0.053
21637 H 131.426 184.684 96.6932 H 0 **** 0.053
21638 H 130.195 185.371 95.6215 H 0 **** 0.053
21639 H 132.199 186.846 95.6011 H 0 **** 0.053
21640 H 132.06 186.056 94.0172 H 0 **** 0.053
21641 H 133.872 185.232 96.3619 H 0 **** 0.053
21642 H 134.465 186.26 93.5067 H 0 **** 0.053
21643 H 134.721 187.133 95.0387 H 0 **** 0.053
21644 H 137.545 182.353 94.6122 H 0 **** 0.1268
21645 H 139.561 183.748 94.8115 H 0 **** 0.1268
21646 H 127.754 171.209 91.5628 H 0 **** 0.053
21647 H 127.142 169.664 91.0684 H 0 **** 0.053
21648 H 127.383 170.326 88.6149 H 0 **** 0.053
21649 H 127.972 171.928 89.1283 H 0 **** 0.053
21650 H 126.307 171.427 89.5106 H 0 **** 0.053
21651 H 128.593 166.836 89.4132 H 0 **** 0.053
21652 H 127.482 168.174 89.5836 H 0 **** 0.053
21653 H 127.929 167.222 91.0258 H 0 **** 0.053
21654 H 130.609 172.877 90.225 H 0 **** 0.053
21655 H 130.645 172.589 91.9895 H 0 **** 0.053
21656 H 129.116 172.614 91.1129 H 0 **** 0.053
21657 H 131.973 166.263 90.536 H 0 **** 0.053
21658 H 131.026 166.368 89.031 H 0 **** 0.053
21659 H 130.243 165.994 90.5943 H 0 **** 0.053
21660 H 136.946 167.133 90.3869 H 0 **** 0.053
21661 H 135.878 167.172 88.9496 H 0 **** 0.053
21662 H 135.233 166.842 90.5844 H 0 **** 0.053
21663 H 138.619 169.991 88.9218 H 0 **** 0.053
21664 H 138.061 168.345 89.0925 H 0 **** 0.053
21665 H 138.841 169.146 90.494 H 0 **** 0.053
21666 H 139.452 172.494 90.72 H 0 **** 0.41
21667 H 141.005 175.569 86.3162 H 0 **** 0.053
21668 H 141.337 174.089 87.2391 H 0 **** 0.053
21669 H 141.594 175.678 88.0052 H 0 **** 0.053
21670 H 139.002 178.562 87.303 H 0 **** 0.053
21671 H 139.504 177.345 86.1064 H 0 **** 0.053
21672 H 140.584 177.766 87.4761 H 0 **** 0.053
21673 H 137.575 179.329 91.8553 H 0 **** 0.41
21674 H 132.86 175.437 92.5721 H 0 **** 0.41
21675 H 136.494 188.098 93.9266 H 0 **** 0.053
21676 H 138.108 188.24 94.6155 H 0 **** 0.053
21677 H 136.712 188.117 95.7031 H 0 **** 0.053
21678 H 139.922 187.048 94.0113 H 0 **** 0.053
21679 H 140.661 185.756 94.9688 H 0 **** 0.053
21680 H 139.791 187.06 95.7909 H 0 **** 0.053
21681 C 138.309 119.158 56.3201 C.2 0 **** 0
21682 C 138.164 119.868 57.5016 C.2 0 **** 0
21683 C 137.307 119.405 58.4867 C.2 0 **** 0
21684 C 136.621 118.234 58.2825 C.2 0 **** 0
21685 C 136.804 117.488 57.124 C.2 0 **** 0
21686 C 137.66 117.949 56.145 C.2 0 **** 0
21687 C 135.659 117.713 59.3318 C.3 0 **** -0.106
21688 C 135.341 118.593 60.5333 C.2 0 **** 0
21689 C 136.019 119.762 60.743 C.2 0 **** 0
21690 C 137.126 120.192 59.7824 C.3 0 **** -0.106
21691 C 135.688 120.563 61.8401 C.2 0 **** 0
21692 C 134.638 120.235 62.675 C.2 0 **** 0
21693 C 134.018 119 62.5223 C.2 0 **** 0
21694 C 134.35 118.177 61.4393 C.2 0 **** 0
21695 C 133.692 116.971 61.2537 C.2 0 **** -0.1268
21696 C 132.607 116.554 61.997 C.2 0 **** 0
21697 C 132.198 117.495 63.0076 C.2 0 **** 0
21698 C 133.028 118.551 63.392 C.2 0 **** 0.042
21699 C 130.946 117.202 63.8582 C.3 0 **** 0
21700 C 130.201 115.885 63.6266 C.3 0 **** 0
21701 C 130.849 114.852 62.6833 C.2 0 **** 0
21702 C 131.984 115.206 61.8829 C.2 0 **** 0
21703 C 128.677 115.965 63.8573 C.3 0 **** -0.106
21704 C 128.059 117.195 63.1859 C.3 0 **** -0.053
21705 C 128.659 118.521 63.7477 C.3 0 **** -0.053
21706 C 130.05 118.337 64.4091 C.3 0 **** -0.106
21707 C 132.548 114.166 61.1161 C.2 0 **** 0.042
21708 C 132.004 112.9 61.1308 C.2 0 **** 0.052
21709 C 130.921 112.589 61.9401 C.2 0 **** 0.052
21710 C 130.389 113.549 62.7595 C.2 0 **** 0.042
21711 C 130.314 111.212 61.984 C.2 0 **** 0.367
21712 C 130.937 110.183 61.1006 C.2 0 **** 0
21713 C 131.991 110.471 60.3284 C.2 0 **** 0
21714 C 132.605 111.819 60.2677 C.2 0 **** 0.367
21715 C 132.609 109.426 59.4276 C.3 0 **** -0.106
21716 C 131.489 108.505 58.881 C.3 0 **** -0.106
21717 C 130.637 107.944 60.0197 C.2 0 **** 0
21718 C 130.35 108.783 61.1202 C.2 0 **** 0.2405
21719 N 129.582 108.371 62.1519 N.2 0 **** -0.481
21720 C 129.017 107.171 62.0702 C.2 0 **** 0.2405
21721 C 129.29 106.275 61.0111 C.2 0 **** 0
21722 C 130.118 106.674 59.992 C.2 0 **** 0
21723 C 130.428 105.758 58.8148 C.3 0 **** -0.106
21724 C 130.066 104.293 59.0888 C.3 0 **** -0.106
21725 C 128.685 104.195 59.7285 C.3 0 **** -0.106
21726 C 128.701 104.889 61.1037 C.3 0 **** -0.053
21727 C 127.278 104.96 61.7173 C.3 0 **** -0.106
21728 C 127.318 105.73 63.0102 C.2 0 **** 0
21729 C 128.166 106.829 63.1519 C.2 0 **** 0
21730 C 128.152 107.561 64.3528 C.2 0 **** -0.1268
21731 C 127.28 107.201 65.362 C.2 0 **** -0.1268
21732 C 126.406 106.139 65.2127 C.2 0 **** 0
21733 C 126.416 105.414 64.0214 C.2 0 **** 0
21734 C 137.91 117.128 54.9058 C.3 0 **** -0.106
21735 C 136.825 117.386 53.8385 C.3 0 **** -0.159
21736 C 139.186 119.714 55.2289 C.3 0 **** -0.159
21737 C 136.026 116.2 56.9819 C.3 0 **** -0.159
21738 C 138.931 121.15 57.7167 C.3 0 **** -0.159
21739 C 136.498 121.842 62.0502 C.3 0 **** -0.159
21740 C 134.229 121.263 63.7029 C.3 0 **** -0.159
21741 O 132.792 119.177 64.5833 O.3 0 **** -0.452
21742 C 127.79 119.187 64.8165 C.3 0 **** -0.159
21743 C 126.537 117.093 63.3321 C.3 0 **** -0.159
21744 O 129.395 113.288 63.663 O.3 0 **** -0.452
21745 O 133.649 114.395 60.3574 O.3 0 **** -0.452
21746 O 133.54 112.037 59.5681 O.2 0 **** -0.419
21747 O 129.354 110.983 62.6618 O.2 0 **** -0.419
21748 C 125.428 104.274 63.8345 C.3 0 **** -0.159
21749 C 125.457 105.824 66.3518 C.3 0 **** -0.159
21750 H 134.695 117.499 58.8149 H 0 **** 0.053
21751 H 136.044 116.733 59.7057 H 0 **** 0.053
21752 H 138.097 120.172 60.3342 H 0 **** 0.053
21753 H 136.942 121.254 59.5101 H 0 **** 0.053
21754 H 134.06 116.386 60.441 H 0 **** 0.1268
21755 H 128.17 115.074 63.4831 H 0 **** 0.053
21756 H 128.535 116.01 64.9395 H 0 **** 0.053
21757 H 128.297 117.145 62.108 H 0 **** 0.053
21758 H 128.766 119.214 62.9036 H 0 **** 0.053
21759 H 129.913 118.069 65.4605 H 0 **** 0.053
21760 H 130.569 119.303 64.3827 H 0 **** 0.053
21761 H 133.161 109.868 58.5782 H 0 **** 0.053
21762 H 133.341 108.844 60.0139 H 0 **** 0.053
21763 H 131.976 107.724 58.2714 H 0 **** 0.053
21764 H 130.861 109.09 58.1758 H 0 **** 0.053
21765 H 129.868 106.103 57.9246 H 0 **** 0.053
21766 H 131.499 105.793 58.5458 H 0 **** 0.053
21767 H 130.811 103.845 59.7736 H 0 **** 0.053
21768 H 130.108 103.703 58.1544 H 0 **** 0.053
21769 H 128.37 103.14 59.8439 H 0 **** 0.053
21770 H 127.937 104.681 59.0765 H 0 **** 0.053
21771 H 129.338 104.271 61.7833 H 0 **** 0.053
21772 H 126.595 105.462 60.9939 H 0 **** 0.053
21773 H 126.897 103.922 61.838 H 0 **** 0.053
21774 H 128.82 108.42 64.4968 H 0 **** 0.1268
21775 H 127.271 107.781 66.299 H 0 **** 0.1268
21776 H 137.953 116.043 55.1249 H 0 **** 0.053
21777 H 138.9 117.334 54.462 H 0 **** 0.053
21778 H 136.791 118.451 53.5571 H 0 **** 0.053
21779 H 135.825 117.101 54.2035 H 0 **** 0.053
21780 H 137.015 116.806 52.9127 H 0 **** 0.053
21781 H 139.222 120.821 55.2247 H 0 **** 0.053
21782 H 138.831 119.449 54.2147 H 0 **** 0.053
21783 H 140.235 119.354 55.3154 H 0 **** 0.053
21784 H 134.928 116.383 56.9867 H 0 **** 0.053
21785 H 136.242 115.493 57.812 H 0 **** 0.053
21786 H 136.22 115.639 56.0552 H 0 **** 0.053
21787 H 139.098 121.393 58.7841 H 0 **** 0.053
21788 H 138.406 122.022 57.2684 H 0 **** 0.053
21789 H 139.946 121.115 57.2761 H 0 **** 0.053
21790 H 136.602 122.109 63.1169 H 0 **** 0.053
21791 H 136.043 122.714 61.5271 H 0 **** 0.053
21792 H 137.549 121.764 61.6881 H 0 **** 0.053
21793 H 133.123 121.355 63.7856 H 0 **** 0.053
21794 H 134.548 122.315 63.4693 H 0 **** 0.053
21795 H 134.621 121.043 64.7299 H 0 **** 0.053
21796 H 132.284 118.598 65.1571 H 0 **** 0.41
21797 H 126.82 119.502 64.4118 H 0 **** 0.053
21798 H 128.289 120.091 65.213 H 0 **** 0.053
21799 H 127.613 118.507 65.6735 H 0 **** 0.053
21800 H 126.159 116.172 62.8509 H 0 **** 0.053
21801 H 126.031 117.946 62.8556 H 0 **** 0.053
21802 H 126.233 117.05 64.3969 H 0 **** 0.053
21803 H 129.084 112.382 63.5175 H 0 **** 0.41
21804 H 133.886 113.596 59.8641 H 0 **** 0.41
21805 H 124.885 104.362 62.8749 H 0 **** 0.053
21806 H 124.644 104.234 64.6147 H 0 **** 0.053
21807 H 125.933 103.286 63.8481 H 0 **** 0.053
21808 H 124.4 105.95 66.0545 H 0 **** 0.053
21809 H 125.617 106.484 67.2219 H 0 **** 0.053
21810 H 125.581 104.789 66.7164 H 0 **** 0.053
21811 C 134.224 101.54 38.8272 C.2 0 **** 0
21812 C 133.465 101.129 39.9118 C.2 0 **** 0
21813 C 132.308 100.394 39.7085 C.2 0 **** 0
21814 C 131.936 100.069 38.4275 C.2 0 **** 0
21815 C 132.722 100.43 37.3396 C.2 0 **** 0
21816 C 133.875 101.159 37.5439 C.2 0 **** 0
21817 C 130.664 99.2856 38.1719 C.3 0 **** -0.106
21818 C 129.726 99.014 39.3398 C.2 0 **** 0
21819 C 130.088 99.3354 40.6183 C.2 0 **** 0
21820 C 131.456 99.9543 40.8966 C.3 0 **** -0.106
21821 C 129.195 99.0988 41.6684 C.2 0 **** 0
21822 C 127.924 98.6157 41.4304 C.2 0 **** 0
21823 C 127.593 98.1949 40.1473 C.2 0 **** 0
21824 C 128.483 98.4078 39.0875 C.2 0 **** 0
21825 C 128.131 98.0399 37.7975 C.2 0 **** -0.1268
21826 C 126.882 97.5832 37.4321 C.2 0 **** 0
21827 C 125.945 97.518 38.5235 C.2 0 **** 0
21828 C 126.372 97.5954 39.8516 C.2 0 **** 0.042
21829 C 124.484 97.1083 38.2486 C.3 0 **** 0
21830 C 124.09 96.7326 36.8176 C.3 0 **** 0
21831 C 125.217 96.6202 35.7709 C.2 0 **** 0
21832 C 126.544 97.067 36.0767 C.2 0 **** 0
21833 C 122.637 97.0905 36.4418 C.3 0 **** -0.106
21834 C 122.27 98.5113 36.8776 C.3 0 **** -0.053
21835 C 122.376 98.6906 38.4219 C.3 0 **** -0.053
21836 C 123.31 97.653 39.0973 C.3 0 **** -0.106
21837 C 127.515 96.8433 35.0801 C.2 0 **** 0.042
21838 C 127.177 96.2557 33.8795 C.2 0 **** 0.052
21839 C 125.887 95.812 33.632 C.2 0 **** 0.052
21840 C 124.928 95.9381 34.6025 C.2 0 **** 0.042
21841 C 125.492 95.1556 32.3349 C.2 0 **** 0.367
21842 C 126.568 95.0066 31.3119 C.2 0 **** 0
21843 C 127.82 95.4183 31.5492 C.2 0 **** 0
21844 C 128.23 96.0676 32.8175 C.2 0 **** 0.367
21845 C 128.902 95.274 30.5039 C.3 0 **** -0.106
21846 C 128.28 95.4873 29.1012 C.3 0 **** -0.106
21847 C 127.068 94.5782 28.896 C.2 0 **** 0
21848 C 126.206 94.3487 29.9927 C.2 0 **** 0.2405
21849 N 125.1 93.5821 29.8858 N.2 0 **** -0.481
21850 C 124.781 93.11 28.6843 C.2 0 **** 0.2405
21851 C 125.616 93.2817 27.5555 C.2 0 **** 0
21852 C 126.771 94.0121 27.6814 C.2 0 **** 0
21853 C 127.696 94.2471 26.4939 C.3 0 **** -0.106
21854 C 127.42 93.2926 25.3258 C.3 0 **** -0.106
21855 C 125.922 93.1999 25.0559 C.3 0 **** -0.106
21856 C 125.216 92.5865 26.2782 C.3 0 **** -0.053
21857 C 123.673 92.615 26.1207 C.3 0 **** -0.106
21858 C 123.018 92.0968 27.3744 C.2 0 **** 0
21859 C 123.57 92.3753 28.6264 C.2 0 **** 0
21860 C 122.912 91.9231 29.7848 C.2 0 **** -0.1268
21861 C 121.721 91.2332 29.6703 C.2 0 **** -0.1268
21862 C 121.147 90.9894 28.4351 C.2 0 **** 0
21863 C 121.794 91.4419 27.2853 C.2 0 **** 0
21864 C 134.765 101.514 36.3807 C.3 0 **** -0.106
21865 C 134.279 102.801 35.6808 C.3 0 **** -0.159
21866 C 135.437 102.403 39.0602 C.3 0 **** -0.159
21867 C 132.255 100.019 35.9623 C.3 0 **** -0.159
21868 C 133.889 101.486 41.3154 C.3 0 **** -0.159
21869 C 129.661 99.4436 43.0836 C.3 0 **** -0.159
21870 C 126.968 98.5896 42.6001 C.3 0 **** -0.159
21871 O 125.539 97.1545 40.8412 O.3 0 **** -0.452
21872 C 121.038 98.5653 39.1541 C.3 0 **** -0.159
21873 C 120.88 98.8217 36.3172 C.3 0 **** -0.159
21874 O 123.667 95.4224 34.4728 O.3 0 **** -0.452
21875 O 128.809 97.1917 35.2948 O.3 0 **** -0.452
21876 O 129.352 96.4202 32.9919 O.2 0 **** -0.419
21877 O 124.361 94.8169 32.1359 O.2 0 **** -0.419
21878 C 121.146 91.2183 25.9293 C.3 0 **** -0.159
21879 C 119.821 90.2564 28.3908 C.3 0 **** -0.159
21880 H 130.083 99.8464 37.4037 H 0 **** 0.053
21881 H 130.942 98.3072 37.7088 H 0 **** 0.053
21882 H 132.055 99.2272 41.4971 H 0 **** 0.053
21883 H 131.299 100.843 41.5465 H 0 **** 0.053
21884 H 128.898 98.182 37.0702 H 0 **** 0.1268
21885 H 122.468 97.0021 35.367 H 0 **** 0.053
21886 H 122.003 96.3602 36.949 H 0 **** 0.053
21887 H 122.984 99.2069 36.4023 H 0 **** 0.053
21888 H 122.782 99.6938 38.6069 H 0 **** 0.053
21889 H 122.732 96.7571 39.34 H 0 **** 0.053
21890 H 123.666 98.0805 40.0426 H 0 **** 0.053
21891 H 129.73 95.9917 30.6453 H 0 **** 0.053
21892 H 129.339 94.2638 30.5861 H 0 **** 0.053
21893 H 129.08 95.3251 28.3594 H 0 **** 0.053
21894 H 127.987 96.5543 29.0003 H 0 **** 0.053
21895 H 127.578 95.2887 26.1383 H 0 **** 0.053
21896 H 128.757 94.13 26.7786 H 0 **** 0.053
21897 H 127.805 92.2838 25.5685 H 0 **** 0.053
21898 H 127.962 93.6227 24.4198 H 0 **** 0.053
21899 H 125.714 92.5865 24.1583 H 0 **** 0.053
21900 H 125.514 94.2071 24.8579 H 0 **** 0.053
21901 H 125.535 91.5201 26.3311 H 0 **** 0.053
21902 H 123.349 93.6627 25.9262 H 0 **** 0.053
21903 H 123.403 92.0301 25.2145 H 0 **** 0.053
21904 H 123.336 92.1133 30.7782 H 0 **** 0.1268
21905 H 121.211 90.8837 30.5814 H 0 **** 0.1268
21906 H 134.826 100.697 35.636 H 0 **** 0.053
21907 H 135.817 101.654 36.6876 H 0 **** 0.053
21908 H 134.257 103.651 36.3833 H 0 **** 0.053
21909 H 133.264 102.676 35.2688 H 0 **** 0.053
21910 H 134.943 103.085 34.8401 H 0 **** 0.053
21911 H 135.34 103.05 39.9539 H 0 **** 0.053
21912 H 135.626 103.111 38.2306 H 0 **** 0.053
21913 H 136.361 101.798 39.192 H 0 **** 0.053
21914 H 131.267 100.469 35.7146 H 0 **** 0.053
21915 H 132.139 98.9167 35.8761 H 0 **** 0.053
21916 H 132.92 100.314 35.1373 H 0 **** 0.053
21917 H 133.511 100.785 42.0841 H 0 **** 0.053
21918 H 133.535 102.5 41.6049 H 0 **** 0.053
21919 H 134.989 101.472 41.4405 H 0 **** 0.053
21920 H 129.225 98.7767 43.848 H 0 **** 0.053
21921 H 129.403 100.491 43.3615 H 0 **** 0.053
21922 H 130.76 99.3356 43.2247 H 0 **** 0.053
21923 H 125.949 98.9313 42.3139 H 0 **** 0.053
21924 H 127.235 99.2855 43.4418 H 0 **** 0.053
21925 H 126.861 97.5734 43.0611 H 0 **** 0.053
21926 H 124.892 96.5499 40.4681 H 0 **** 0.41
21927 H 120.336 99.3568 38.8585 H 0 **** 0.053
21928 H 121.187 98.6494 40.2475 H 0 **** 0.053
21929 H 120.564 97.5827 38.962 H 0 **** 0.053
21930 H 120.88 98.7544 35.2132 H 0 **** 0.053
21931 H 120.562 99.8396 36.5864 H 0 **** 0.053
21932 H 120.124 98.0997 36.6858 H 0 **** 0.053
21933 H 123.563 95.1038 33.5635 H 0 **** 0.41
21934 H 129.336 97.0164 34.5009 H 0 **** 0.41
21935 H 121.105 92.1538 25.3405 H 0 **** 0.053
21936 H 120.099 90.8626 25.9909 H 0 **** 0.053
21937 H 121.698 90.465 25.33 H 0 **** 0.053
21938 H 119.017 90.8856 27.967 H 0 **** 0.053
21939 H 119.481 89.9512 29.396 H 0 **** 0.053
21940 H 119.881 89.3348 27.7859 H 0 **** 0.053
21941 C 118.453 164.871 50.4793 C.2 0 **** 0
21942 C 118.335 166.183 50.9113 C.2 0 **** 0
21943 C 118.94 167.205 50.197 C.2 0 **** 0
21944 C 119.64 166.901 49.0557 C.2 0 **** 0
21945 C 119.716 165.595 48.5866 C.2 0 **** 0
21946 C 119.11 164.58 49.2976 C.2 0 **** 0
21947 C 120.332 167.992 48.2652 C.3 0 **** -0.106
21948 C 120.378 169.399 48.847 C.2 0 **** 0
21949 C 119.685 169.708 49.9844 C.2 0 **** 0
21950 C 118.831 168.649 50.6772 C.3 0 **** -0.106
21951 C 119.768 171.002 50.5107 C.2 0 **** 0
21952 C 120.598 171.952 49.9478 C.2 0 **** 0
21953 C 121.225 171.662 48.7413 C.2 0 **** 0
21954 C 121.132 170.383 48.1857 C.2 0 **** 0
21955 C 121.801 170.082 47.0083 C.2 0 **** -0.1268
21956 C 122.684 170.934 46.377 C.2 0 **** 0
21957 C 122.87 172.187 47.0549 C.2 0 **** 0
21958 C 122 172.594 48.0643 C.2 0 **** 0.042
21959 C 123.889 173.209 46.5128 C.3 0 **** 0
21960 C 124.648 172.866 45.2285 C.3 0 **** 0
21961 C 124.22 171.598 44.462 C.2 0 **** 0
21962 C 123.301 170.666 45.0484 C.2 0 **** 0
21963 C 126.082 173.435 45.1641 C.3 0 **** -0.106
21964 C 126.851 173.205 46.4693 C.3 0 **** -0.053
21965 C 126.156 173.901 47.6785 C.3 0 **** -0.053
21966 C 124.65 174.184 47.4443 C.3 0 **** -0.106
21967 C 122.914 169.584 44.2316 C.2 0 **** 0.042
21968 C 123.426 169.437 42.9603 C.2 0 **** 0.052
21969 C 124.292 170.375 42.4193 C.2 0 **** 0.052
21970 C 124.634 171.484 43.1475 C.2 0 **** 0.042
21971 C 124.857 170.245 41.03 C.2 0 **** 0.367
21972 C 124.438 169.042 40.2533 C.2 0 **** 0
21973 C 123.591 168.14 40.7632 C.2 0 **** 0
21974 C 123.024 168.246 42.1285 C.2 0 **** 0.367
21975 C 123.182 166.917 39.9743 C.3 0 **** -0.106
21976 C 124.387 166.441 39.1253 C.3 0 **** -0.106
21977 C 124.951 167.585 38.2825 C.2 0 **** 0
21978 C 124.989 168.88 38.8481 C.2 0 **** 0.2405
21979 N 125.496 169.938 38.1794 N.2 0 **** -0.481
21980 C 126.052 169.718 36.9925 C.2 0 **** 0.2405
21981 C 126.018 168.453 36.3606 C.2 0 **** 0
21982 C 125.451 167.392 37.019 C.2 0 **** 0
21983 C 125.411 166.005 36.3951 C.3 0 **** -0.106
21984 C 125.675 166.017 34.8859 C.3 0 **** -0.106
21985 C 126.872 166.905 34.567 C.3 0 **** -0.106
21986 C 126.553 168.362 34.9529 C.3 0 **** -0.053
21987 C 127.8 169.272 34.8042 C.3 0 **** -0.106
21988 C 127.476 170.663 35.2824 C.2 0 **** 0
21989 C 126.631 170.856 36.3763 C.2 0 **** 0
21990 C 126.381 172.162 36.8336 C.2 0 **** -0.1268
21991 C 126.996 173.232 36.2137 C.2 0 **** -0.1268
21992 C 127.869 173.046 35.1559 C.2 0 **** 0
21993 C 128.121 171.751 34.7033 C.2 0 **** 0
21994 C 119.138 163.166 48.7762 C.3 0 **** -0.106
21995 C 120.44 162.447 49.1888 C.3 0 **** -0.159
21996 C 117.854 163.765 51.3086 C.3 0 **** -0.159
21997 C 120.49 165.345 47.3129 C.3 0 **** -0.159
21998 C 117.555 166.504 52.1629 C.3 0 **** -0.159
21999 C 118.947 171.309 51.7639 C.3 0 **** -0.159
22000 C 120.773 173.247 50.7062 C.3 0 **** -0.159
22001 O 122.002 173.905 48.4256 O.3 0 **** -0.452
22002 C 126.767 175.254 48.0475 C.3 0 **** -0.159
22003 C 128.299 173.655 46.2451 C.3 0 **** -0.159
22004 O 125.39 172.505 42.6382 O.3 0 **** -0.452
22005 O 122.014 168.675 44.6839 O.3 0 **** -0.452
22006 O 122.273 167.426 42.548 O.2 0 **** -0.419
22007 O 125.633 171.051 40.6033 O.2 0 **** -0.419
22008 C 129.111 171.537 33.5712 C.3 0 **** -0.159
22009 C 128.53 174.266 34.5471 C.3 0 **** -0.159
22010 H 121.386 167.666 48.1074 H 0 **** 0.053
22011 H 119.86 168.046 47.2534 H 0 **** 0.053
22012 H 117.761 168.957 50.5998 H 0 **** 0.053
22013 H 119.085 168.667 51.7599 H 0 **** 0.053
22014 H 121.62 169.098 46.6337 H 0 **** 0.1268
22015 H 126.65 172.993 44.3442 H 0 **** 0.053
22016 H 125.975 174.505 44.9695 H 0 **** 0.053
22017 H 126.864 172.118 46.6646 H 0 **** 0.053
22018 H 126.251 173.229 48.5416 H 0 **** 0.053
22019 H 124.54 175.153 46.95 H 0 **** 0.053
22020 H 124.169 174.261 48.4256 H 0 **** 0.053
22021 H 122.842 166.087 40.6199 H 0 **** 0.053
22022 H 122.329 167.184 39.3266 H 0 **** 0.053
22023 H 124.046 165.581 38.5249 H 0 **** 0.053
22024 H 125.165 166.039 39.8078 H 0 **** 0.053
22025 H 126.159 165.356 36.8864 H 0 **** 0.053
22026 H 124.431 165.533 36.5565 H 0 **** 0.053
22027 H 124.787 166.404 34.3512 H 0 **** 0.053
22028 H 125.837 164.988 34.5125 H 0 **** 0.053
22029 H 127.141 166.85 33.4944 H 0 **** 0.053
22030 H 127.754 166.557 35.1347 H 0 **** 0.053
22031 H 125.77 168.731 34.2455 H 0 **** 0.053
22032 H 128.634 168.845 35.4059 H 0 **** 0.053
22033 H 128.131 169.24 33.7435 H 0 **** 0.053
22034 H 125.708 172.342 37.6814 H 0 **** 0.1268
22035 H 126.8 174.252 36.5796 H 0 **** 0.1268
22036 H 119.035 163.125 47.6744 H 0 **** 0.053
22037 H 118.278 162.573 49.1323 H 0 **** 0.053
22038 H 120.55 162.423 50.2856 H 0 **** 0.053
22039 H 121.328 162.951 48.7711 H 0 **** 0.053
22040 H 120.459 161.398 48.8323 H 0 **** 0.053
22041 H 117.836 163.999 52.3909 H 0 **** 0.053
22042 H 118.428 162.821 51.2435 H 0 **** 0.053
22043 H 116.809 163.535 51.005 H 0 **** 0.053
22044 H 121.561 165.631 47.4225 H 0 **** 0.053
22045 H 120.084 165.931 46.4599 H 0 **** 0.053
22046 H 120.506 164.299 46.9751 H 0 **** 0.053
22047 H 117.154 167.536 52.182 H 0 **** 0.053
22048 H 118.18 166.387 53.0762 H 0 **** 0.053
22049 H 116.666 165.856 52.2846 H 0 **** 0.053
22050 H 118.608 172.359 51.8025 H 0 **** 0.053
22051 H 119.52 171.105 52.6974 H 0 **** 0.053
22052 H 118.005 170.717 51.83 H 0 **** 0.053
22053 H 121.831 173.589 50.7151 H 0 **** 0.053
22054 H 120.527 173.19 51.8014 H 0 **** 0.053
22055 H 120.155 174.087 50.2956 H 0 **** 0.053
22056 H 122.31 174.442 47.6907 H 0 **** 0.41
22057 H 127.809 175.152 48.3799 H 0 **** 0.053
22058 H 126.202 175.721 48.8765 H 0 **** 0.053
22059 H 126.735 175.957 47.1917 H 0 **** 0.053
22060 H 128.765 173.076 45.4261 H 0 **** 0.053
22061 H 128.91 173.503 47.1472 H 0 **** 0.053
22062 H 128.353 174.724 45.957 H 0 **** 0.053
22063 H 125.724 172.228 41.7715 H 0 **** 0.41
22064 H 121.891 167.974 44.0269 H 0 **** 0.41
22065 H 129.859 170.763 33.8276 H 0 **** 0.053
22066 H 129.697 172.441 33.3172 H 0 **** 0.053
22067 H 128.604 171.22 32.636 H 0 **** 0.053
22068 H 129.629 174.243 34.6687 H 0 **** 0.053
22069 H 128.184 175.204 35.0157 H 0 **** 0.053
22070 H 128.314 174.356 33.468 H 0 **** 0.053
22071 C 144.393 193.85 46.8609 C.2 0 **** 0
22072 C 144.751 192.557 46.5121 C.2 0 **** 0
22073 C 143.788 191.562 46.46 C.2 0 **** 0
22074 C 142.482 191.877 46.7427 C.2 0 **** 0
22075 C 142.108 193.182 47.0389 C.2 0 **** 0
22076 C 143.067 194.172 47.0876 C.2 0 **** 0
22077 C 141.411 190.805 46.7177 C.3 0 **** -0.106
22078 C 141.833 189.353 46.5399 C.2 0 **** 0
22079 C 143.132 189.031 46.2593 C.2 0 **** 0
22080 C 144.178 190.132 46.0967 C.3 0 **** -0.106
22081 C 143.496 187.688 46.1284 C.2 0 **** 0
22082 C 142.584 186.674 46.3505 C.2 0 **** 0
22083 C 141.246 187.002 46.5346 C.2 0 **** 0
22084 C 140.862 188.343 46.6505 C.2 0 **** 0
22085 C 139.535 188.669 46.8918 C.2 0 **** -0.1268
22086 C 138.545 187.748 47.1661 C.2 0 **** 0
22087 C 139.008 186.385 47.1853 C.2 0 **** 0
22088 C 140.252 186.035 46.6545 C.2 0 **** 0.042
22089 C 138.031 185.254 47.5634 C.3 0 **** 0
22090 C 136.575 185.621 47.862 C.3 0 **** 0
22091 C 136.133 187.074 47.5943 C.2 0 **** 0
22092 C 137.101 188.088 47.2956 C.2 0 **** 0
22093 C 135.893 184.722 48.9151 C.3 0 **** -0.106
22094 C 136.782 184.504 50.1439 C.3 0 **** -0.053
22095 C 138.123 183.803 49.7695 C.3 0 **** -0.053
22096 C 138.508 183.966 48.2757 C.3 0 **** -0.106
22097 C 136.586 189.363 46.9887 C.2 0 **** 0.042
22098 C 135.228 189.603 47.0099 C.2 0 **** 0.052
22099 C 134.321 188.588 47.2766 C.2 0 **** 0.052
22100 C 134.774 187.315 47.5044 C.2 0 **** 0.042
22101 C 132.832 188.819 47.2949 C.2 0 **** 0.367
22102 C 132.373 190.211 47.0128 C.2 0 **** 0
22103 C 133.241 191.192 46.7394 C.2 0 **** 0
22104 C 134.71 190.988 46.7174 C.2 0 **** 0.367
22105 C 132.768 192.601 46.4662 C.3 0 **** -0.106
22106 C 131.532 192.899 47.3514 C.3 0 **** -0.106
22107 C 130.462 191.821 47.1776 C.2 0 **** 0
22108 C 130.878 190.479 47.0229 C.2 0 **** 0.2405
22109 N 129.995 189.466 46.8922 N.2 0 **** -0.481
22110 C 128.701 189.748 47.0043 C.2 0 **** 0.2405
22111 C 128.221 191.073 47.1293 C.2 0 **** 0
22112 C 129.12 192.107 47.2029 C.2 0 **** 0
22113 C 128.66 193.551 47.3616 C.3 0 **** -0.106
22114 C 127.173 193.741 47.0353 C.3 0 **** -0.106
22115 C 126.338 192.646 47.6917 C.3 0 **** -0.106
22116 C 126.726 191.276 47.1039 C.3 0 **** -0.053
22117 C 126.023 190.117 47.8588 C.3 0 **** -0.106
22118 C 126.502 188.794 47.3226 C.2 0 **** 0
22119 C 127.831 188.631 46.9295 C.2 0 **** 0
22120 C 128.267 187.373 46.4762 C.2 0 **** -0.1268
22121 C 127.382 186.311 46.4533 C.2 0 **** -0.1268
22122 C 126.074 186.455 46.8814 C.2 0 **** 0
22123 C 125.642 187.701 47.3347 C.2 0 **** 0
22124 C 142.671 195.601 47.3577 C.3 0 **** -0.106
22125 C 142.56 195.872 48.8733 C.3 0 **** -0.159
22126 C 145.463 194.903 46.9888 C.3 0 **** -0.159
22127 C 140.648 193.451 47.3221 C.3 0 **** -0.159
22128 C 146.189 192.225 46.1967 C.3 0 **** -0.159
22129 C 144.953 187.382 45.7804 C.3 0 **** -0.159
22130 C 143.121 185.263 46.3868 C.3 0 **** -0.159
22131 O 140.493 184.726 46.3435 O.3 0 **** -0.452
22132 C 138.122 182.294 50.0227 C.3 0 **** -0.159
22133 C 135.956 183.744 51.1888 C.3 0 **** -0.159
22134 O 133.935 186.245 47.6635 O.3 0 **** -0.452
22135 O 137.422 190.376 46.6523 O.3 0 **** -0.452
22136 O 135.451 191.884 46.4721 O.2 0 **** -0.419
22137 O 132.076 187.932 47.5673 O.2 0 **** -0.419
22138 C 124.22 187.854 47.8475 C.3 0 **** -0.159
22139 C 125.172 185.237 46.8563 C.3 0 **** -0.159
22140 H 140.858 190.872 47.6831 H 0 **** 0.053
22141 H 140.679 191.06 45.9124 H 0 **** 0.053
22142 H 144.526 190.13 45.0357 H 0 **** 0.053
22143 H 145.059 189.853 46.7165 H 0 **** 0.053
22144 H 139.33 189.716 46.8995 H 0 **** 0.1268
22145 H 134.942 185.144 49.245 H 0 **** 0.053
22146 H 135.691 183.771 48.4177 H 0 **** 0.053
22147 H 137.022 185.497 50.5648 H 0 **** 0.053
22148 H 138.912 184.259 50.3817 H 0 **** 0.053
22149 H 138.04 183.165 47.6969 H 0 **** 0.053
22150 H 139.594 183.842 48.1896 H 0 **** 0.053
22151 H 133.548 193.359 46.6661 H 0 **** 0.053
22152 H 132.51 192.685 45.3962 H 0 **** 0.053
22153 H 131.18 193.912 47.0922 H 0 **** 0.053
22154 H 131.859 192.955 48.4116 H 0 **** 0.053
22155 H 128.841 193.88 48.403 H 0 **** 0.053
22156 H 129.235 194.233 46.7107 H 0 **** 0.053
22157 H 127.023 193.699 45.9397 H 0 **** 0.053
22158 H 126.831 194.742 47.3582 H 0 **** 0.053
22159 H 125.256 192.824 47.545 H 0 **** 0.053
22160 H 126.516 192.645 48.7825 H 0 **** 0.053
22161 H 126.378 191.257 46.0421 H 0 **** 0.053
22162 H 126.256 190.197 48.9449 H 0 **** 0.053
22163 H 124.924 190.255 47.7644 H 0 **** 0.053
22164 H 129.302 187.221 46.1461 H 0 **** 0.1268
22165 H 127.731 185.327 46.1004 H 0 **** 0.1268
22166 H 141.713 195.869 46.8703 H 0 **** 0.053
22167 H 143.384 196.322 46.9205 H 0 **** 0.053
22168 H 143.515 195.666 49.3838 H 0 **** 0.053
22169 H 141.785 195.241 49.3392 H 0 **** 0.053
22170 H 142.295 196.928 49.0813 H 0 **** 0.053
22171 H 146.441 194.488 47.3024 H 0 **** 0.053
22172 H 145.229 195.662 47.7596 H 0 **** 0.053
22173 H 145.629 195.446 46.0328 H 0 **** 0.053
22174 H 140.293 192.883 48.2115 H 0 **** 0.053
22175 H 140 193.156 46.4686 H 0 **** 0.053
22176 H 140.401 194.501 47.5352 H 0 **** 0.053
22177 H 146.306 191.347 45.5332 H 0 **** 0.053
22178 H 146.773 192.009 47.1193 H 0 **** 0.053
22179 H 146.705 193.048 45.6648 H 0 **** 0.053
22180 H 145.06 186.466 45.1724 H 0 **** 0.053
22181 H 145.581 187.257 46.6921 H 0 **** 0.053
22182 H 145.435 188.174 45.1638 H 0 **** 0.053
22183 H 142.669 184.665 47.2096 H 0 **** 0.053
22184 H 144.222 185.182 46.598 H 0 **** 0.053
22185 H 142.947 184.699 45.4334 H 0 **** 0.053
22186 H 139.657 184.267 46.2243 H 0 **** 0.41
22187 H 138.004 182.061 51.0893 H 0 **** 0.053
22188 H 139.077 181.846 49.691 H 0 **** 0.053
22189 H 137.311 181.792 49.4591 H 0 **** 0.053
22190 H 135.057 184.322 51.4716 H 0 **** 0.053
22191 H 136.537 183.566 52.1063 H 0 **** 0.053
22192 H 135.604 182.769 50.7979 H 0 **** 0.053
22193 H 133.026 186.578 47.7129 H 0 **** 0.41
22194 H 136.917 191.192 46.5136 H 0 **** 0.41
22195 H 124.197 188.348 48.8368 H 0 **** 0.053
22196 H 123.692 186.891 47.9859 H 0 **** 0.053
22197 H 123.596 188.456 47.1546 H 0 **** 0.053
22198 H 124.836 184.953 47.8701 H 0 **** 0.053
22199 H 125.681 184.351 46.4371 H 0 **** 0.053
22200 H 124.273 185.404 46.2384 H 0 **** 0.053
22201 C 116.581 194.499 35.5238 C.2 0 **** 0
22202 C 115.548 194.236 36.4098 C.2 0 **** 0
22203 C 114.677 193.187 36.1661 C.2 0 **** 0
22204 C 114.862 192.407 35.0512 C.2 0 **** 0
22205 C 115.931 192.628 34.1908 C.2 0 **** 0
22206 C 116.798 193.672 34.4364 C.2 0 **** 0
22207 C 113.911 191.268 34.7445 C.3 0 **** -0.106
22208 C 112.659 191.111 35.5968 C.2 0 **** 0
22209 C 112.468 191.885 36.7077 C.2 0 **** 0
22210 C 113.523 192.906 37.1246 C.3 0 **** -0.106
22211 C 111.296 191.738 37.4563 C.2 0 **** 0
22212 C 110.293 190.878 37.0535 C.2 0 **** 0
22213 C 110.531 190.021 35.9854 C.2 0 **** 0
22214 C 111.707 190.143 35.2358 C.2 0 **** 0
22215 C 111.919 189.326 34.1353 C.2 0 **** -0.1268
22216 C 110.98 188.459 33.617 C.2 0 **** 0
22217 C 109.726 188.469 34.3255 C.2 0 **** 0
22218 C 109.613 189.052 35.5904 C.2 0 **** 0.042
22219 C 108.553 187.614 33.8073 C.3 0 **** 0
22220 C 108.78 186.739 32.5716 C.3 0 **** 0
22221 C 110.218 186.63 32.0255 C.2 0 **** 0
22222 C 111.252 187.492 32.5185 C.2 0 **** 0
22223 C 107.533 186.557 31.6805 C.3 0 **** -0.106
22224 C 106.814 187.885 31.423 C.3 0 **** -0.053
22225 C 106.316 188.539 32.748 C.3 0 **** -0.053
22226 C 107.08 188.045 34.0047 C.3 0 **** -0.106
22227 C 112.546 187.255 32.0114 C.2 0 **** 0.042
22228 C 112.771 186.268 31.0754 C.2 0 **** 0.052
22229 C 111.748 185.437 30.6437 C.2 0 **** 0.052
22230 C 110.491 185.58 31.1681 C.2 0 **** 0.042
22231 C 111.969 184.343 29.6317 C.2 0 **** 0.367
22232 C 113.357 184.197 29.1041 C.2 0 **** 0
22233 C 114.353 184.985 29.5272 C.2 0 **** 0
22234 C 114.159 186.068 30.5213 C.2 0 **** 0.367
22235 C 115.754 184.837 28.9797 C.3 0 **** -0.106
22236 C 115.672 184.446 27.4829 C.3 0 **** -0.106
22237 C 114.776 183.223 27.2851 C.2 0 **** 0
22238 C 113.615 183.104 28.0825 C.2 0 **** 0.2405
22239 N 112.759 182.068 27.9509 N.2 0 **** -0.481
22240 C 112.983 181.193 26.9756 C.2 0 **** 0.2405
22241 C 114.142 181.24 26.1653 C.2 0 **** 0
22242 C 115.041 182.262 26.3415 C.2 0 **** 0
22243 C 116.294 182.375 25.4819 C.3 0 **** -0.106
22244 C 116.62 181.079 24.7311 C.3 0 **** -0.106
22245 C 115.362 180.501 24.0915 C.3 0 **** -0.106
22246 C 114.355 180.109 25.1899 C.3 0 **** -0.053
22247 C 112.996 179.673 24.5818 C.3 0 **** -0.106
22248 C 112.01 179.394 25.6847 C.2 0 **** 0
22249 C 112.009 180.171 26.8447 C.2 0 **** 0
22250 C 111.047 179.921 27.8404 C.2 0 **** -0.1268
22251 C 110.102 178.933 27.6453 C.2 0 **** -0.1268
22252 C 110.07 178.187 26.48 C.2 0 **** 0
22253 C 111.021 178.436 25.4899 C.2 0 **** 0
22254 C 117.992 193.893 33.5428 C.3 0 **** -0.106
22255 C 117.611 194.729 32.3032 C.3 0 **** -0.159
22256 C 117.466 195.692 35.7627 C.3 0 **** -0.159
22257 C 116.076 191.715 32.9952 C.3 0 **** -0.159
22258 C 115.363 195.096 37.6364 C.3 0 **** -0.159
22259 C 111.145 192.602 38.7087 C.3 0 **** -0.159
22260 C 108.988 190.942 37.8107 C.3 0 **** -0.159
22261 O 108.55 188.716 36.3805 O.3 0 **** -0.452
22262 C 104.838 188.277 33.0467 C.3 0 **** -0.159
22263 C 105.698 187.623 30.4044 C.3 0 **** -0.159
22264 O 109.462 184.726 30.875 O.3 0 **** -0.452
22265 O 113.598 187.991 32.4504 O.3 0 **** -0.452
22266 O 115.068 186.747 30.873 O.2 0 **** -0.419
22267 O 111.059 183.666 29.2495 O.2 0 **** -0.419
22268 C 110.964 177.65 24.1901 C.3 0 **** -0.159
22269 C 108.984 177.142 26.3251 C.3 0 **** -0.159
22270 H 113.578 191.394 33.6882 H 0 **** 0.053
22271 H 114.486 190.311 34.7849 H 0 **** 0.053
22272 H 113.959 192.583 38.1006 H 0 **** 0.053
22273 H 113.002 193.87 37.3177 H 0 **** 0.053
22274 H 112.87 189.449 33.6685 H 0 **** 0.1268
22275 H 107.791 186.11 30.7188 H 0 **** 0.053
22276 H 106.876 185.866 32.2138 H 0 **** 0.053
22277 H 107.539 188.575 30.9552 H 0 **** 0.053
22278 H 106.467 189.622 32.6551 H 0 **** 0.053
22279 H 106.596 187.14 34.3831 H 0 **** 0.053
22280 H 106.99 188.814 34.781 H 0 **** 0.053
22281 H 116.351 185.762 29.08 H 0 **** 0.053
22282 H 116.278 184.056 29.5581 H 0 **** 0.053
22283 H 116.706 184.295 27.127 H 0 **** 0.053
22284 H 115.279 185.313 26.9094 H 0 **** 0.053
22285 H 116.159 183.19 24.7446 H 0 **** 0.053
22286 H 117.178 182.643 26.0883 H 0 **** 0.053
22287 H 117.039 180.334 25.4349 H 0 **** 0.053
22288 H 117.4 181.259 23.9686 H 0 **** 0.053
22289 H 115.598 179.618 23.467 H 0 **** 0.053
22290 H 114.906 181.252 23.4217 H 0 **** 0.053
22291 H 114.782 179.235 25.7397 H 0 **** 0.053
22292 H 112.615 180.487 23.9242 H 0 **** 0.053
22293 H 113.174 178.796 23.9223 H 0 **** 0.053
22294 H 111.034 180.507 28.7683 H 0 **** 0.1268
22295 H 109.349 178.746 28.4278 H 0 **** 0.1268
22296 H 118.45 192.94 33.2121 H 0 **** 0.053
22297 H 118.818 194.4 34.0699 H 0 **** 0.053
22298 H 117.201 195.709 32.5975 H 0 **** 0.053
22299 H 116.853 194.216 31.6887 H 0 **** 0.053
22300 H 118.488 194.92 31.6531 H 0 **** 0.053
22301 H 116.945 196.524 36.2733 H 0 **** 0.053
22302 H 117.852 196.139 34.8277 H 0 **** 0.053
22303 H 118.342 195.431 36.3911 H 0 **** 0.053
22304 H 115.195 191.785 32.3185 H 0 **** 0.053
22305 H 116.17 190.65 33.2973 H 0 **** 0.053
22306 H 116.947 191.921 32.3548 H 0 **** 0.053
22307 H 114.838 194.58 38.4637 H 0 **** 0.053
22308 H 114.777 196.014 37.4084 H 0 **** 0.053
22309 H 116.326 195.42 38.0752 H 0 **** 0.053
22310 H 110.564 192.1 39.5022 H 0 **** 0.053
22311 H 110.646 193.573 38.4866 H 0 **** 0.053
22312 H 112.116 192.844 39.1975 H 0 **** 0.053
22313 H 108.108 190.891 37.1317 H 0 **** 0.053
22314 H 108.813 191.901 38.3697 H 0 **** 0.053
22315 H 108.873 190.12 38.5644 H 0 **** 0.053
22316 H 108.188 187.875 36.0888 H 0 **** 0.41
22317 H 104.184 188.723 32.2848 H 0 **** 0.053
22318 H 104.556 188.72 34.0209 H 0 **** 0.053
22319 H 104.625 187.192 33.1056 H 0 **** 0.053
22320 H 106.117 187.232 29.4584 H 0 **** 0.053
22321 H 105.149 188.546 30.1655 H 0 **** 0.053
22322 H 104.977 186.868 30.7755 H 0 **** 0.053
22323 H 109.753 184.133 30.1662 H 0 **** 0.41
22324 H 114.402 187.738 31.9728 H 0 **** 0.41
22325 H 111.003 178.32 23.3104 H 0 **** 0.053
22326 H 110.037 177.058 24.0696 H 0 **** 0.053
22327 H 111.806 176.933 24.1064 H 0 **** 0.053
22328 H 108.309 177.372 25.4807 H 0 **** 0.053
22329 H 108.346 177.069 27.2234 H 0 **** 0.053
22330 H 109.403 176.135 26.1548 H 0 **** 0.053
22331 C 132.435 171.851 39.9924 C.2 0 **** 0
22332 C 133.167 170.691 39.7904 C.2 0 **** 0
22333 C 134.147 170.323 40.6989 C.2 0 **** 0
22334 C 134.369 171.111 41.8013 C.2 0 **** 0
22335 C 133.602 172.245 42.0388 C.2 0 **** 0
22336 C 132.625 172.608 41.1346 C.2 0 **** 0
22337 C 135.449 170.747 42.8008 C.3 0 **** -0.106
22338 C 136.389 169.594 42.4749 C.2 0 **** 0
22339 C 136.174 168.806 41.3786 C.2 0 **** 0
22340 C 134.97 169.058 40.4734 C.3 0 **** -0.106
22341 C 137.069 167.77 41.0886 C.2 0 **** 0
22342 C 138.207 167.575 41.8464 C.2 0 **** 0
22343 C 138.37 168.308 43.0161 C.2 0 **** 0
22344 C 137.474 169.337 43.3306 C.2 0 **** 0
22345 C 137.668 170.106 44.4676 C.2 0 **** -0.1268
22346 C 138.782 170.029 45.2784 C.2 0 **** 0
22347 C 139.754 169.062 44.84 C.2 0 **** 0
22348 C 139.432 168.091 43.8889 C.2 0 **** 0.042
22349 C 141.089 168.927 45.5997 C.3 0 **** 0
22350 C 141.315 169.803 46.8348 C.3 0 **** 0
22351 C 140.125 170.638 47.3482 C.2 0 **** 0
22352 C 138.93 170.761 46.5668 C.2 0 **** 0
22353 C 142.784 170.215 47.0653 C.3 0 **** -0.106
22354 C 143.449 170.711 45.7774 C.3 0 **** -0.053
22355 C 143.469 169.608 44.6763 C.3 0 **** -0.053
22356 C 142.396 168.508 44.8851 C.3 0 **** -0.106
22357 C 137.874 171.48 47.163 C.2 0 **** 0.042
22358 C 138.018 172.046 48.4119 C.2 0 **** 0.052
22359 C 139.181 171.881 49.1485 C.2 0 **** 0.052
22360 C 140.204 171.125 48.6406 C.2 0 **** 0.042
22361 C 139.361 172.478 50.519 C.2 0 **** 0.367
22362 C 138.216 173.271 51.0544 C.2 0 **** 0
22363 C 137.084 173.421 50.3562 C.2 0 **** 0
22364 C 136.884 172.843 49.0049 C.2 0 **** 0.367
22365 C 135.932 174.234 50.9004 C.3 0 **** -0.106
22366 C 136.495 175.429 51.7096 C.3 0 **** -0.106
22367 C 137.495 174.954 52.7635 C.2 0 **** 0
22368 C 138.363 173.888 52.4338 C.2 0 **** 0.2405
22369 N 139.294 173.429 53.298 N.2 0 **** -0.481
22370 C 139.434 174.062 54.4586 C.2 0 **** 0.2405
22371 C 138.571 175.107 54.8628 C.2 0 **** 0
22372 C 137.598 175.544 53.9986 C.2 0 **** 0
22373 C 136.665 176.691 54.3672 C.3 0 **** -0.106
22374 C 136.676 177.013 55.8668 C.3 0 **** -0.106
22375 C 138.105 177.051 56.393 C.3 0 **** -0.106
22376 C 138.733 175.647 56.2644 C.3 0 **** -0.053
22377 C 140.23 175.684 56.6258 C.3 0 **** -0.106
22378 C 140.878 174.353 56.3745 C.2 0 **** 0
22379 C 140.475 173.575 55.2891 C.2 0 **** 0
22380 C 141.108 172.341 55.0501 C.2 0 **** -0.1268
22381 C 142.138 171.931 55.8755 C.2 0 **** -0.1268
22382 C 142.577 172.72 56.9235 C.2 0 **** 0
22383 C 141.954 173.947 57.1575 C.2 0 **** 0
22384 C 131.75 173.805 41.4027 C.3 0 **** -0.106
22385 C 132.431 175.108 40.9324 C.3 0 **** -0.159
22386 C 131.428 172.278 38.9562 C.3 0 **** -0.159
22387 C 133.896 173.049 43.2841 C.3 0 **** -0.159
22388 C 132.907 169.83 38.5786 C.3 0 **** -0.159
22389 C 136.766 166.896 39.8714 C.3 0 **** -0.159
22390 C 139.21 166.569 41.3337 C.3 0 **** -0.159
22391 O 140.224 166.983 43.7815 O.3 0 **** -0.452
22392 C 144.8 168.859 44.5782 C.3 0 **** -0.159
22393 C 144.839 171.246 46.144 C.3 0 **** -0.159
22394 O 141.333 170.826 49.3551 O.3 0 **** -0.452
22395 O 136.687 171.613 46.5187 O.3 0 **** -0.452
22396 O 135.865 172.999 48.4153 O.2 0 **** -0.419
22397 O 140.392 172.353 51.1157 O.2 0 **** -0.419
22398 C 142.465 174.836 58.2803 C.3 0 **** -0.159
22399 C 143.732 172.215 57.7663 C.3 0 **** -0.159
22400 H 136.079 171.655 42.9484 H 0 **** 0.053
22401 H 134.96 170.535 43.7832 H 0 **** 0.053
22402 H 134.282 168.182 40.5529 H 0 **** 0.053
22403 H 135.336 169.075 39.4229 H 0 **** 0.053
22404 H 136.899 170.82 44.6566 H 0 **** 0.1268
22405 H 142.866 170.998 47.8214 H 0 **** 0.053
22406 H 143.295 169.325 47.4382 H 0 **** 0.053
22407 H 142.853 171.56 45.3968 H 0 **** 0.053
22408 H 143.276 170.102 43.7149 H 0 **** 0.053
22409 H 142.805 167.729 45.5351 H 0 **** 0.053
22410 H 142.188 168.047 43.9119 H 0 **** 0.053
22411 H 135.267 174.617 50.1049 H 0 **** 0.053
22412 H 135.314 173.584 51.544 H 0 **** 0.053
22413 H 135.634 175.971 52.1354 H 0 **** 0.053
22414 H 136.98 176.138 51.0054 H 0 **** 0.053
22415 H 136.961 177.598 53.8051 H 0 **** 0.053
22416 H 135.622 176.469 54.0806 H 0 **** 0.053
22417 H 136.117 176.235 56.4198 H 0 **** 0.053
22418 H 136.158 177.97 56.0627 H 0 **** 0.053
22419 H 138.14 177.382 57.4483 H 0 **** 0.053
22420 H 138.696 177.783 55.8122 H 0 **** 0.053
22421 H 138.211 174.971 56.9807 H 0 **** 0.053
22422 H 140.661 176.45 55.9556 H 0 **** 0.053
22423 H 140.354 176.052 57.6642 H 0 **** 0.053
22424 H 140.793 171.698 54.2172 H 0 **** 0.1268
22425 H 142.624 170.96 55.6872 H 0 **** 0.1268
22426 H 131.487 173.899 42.4745 H 0 **** 0.053
22427 H 130.766 173.721 40.9087 H 0 **** 0.053
22428 H 132.659 175.069 39.8545 H 0 **** 0.053
22429 H 133.375 175.287 41.4719 H 0 **** 0.053
22430 H 131.783 175.992 41.1009 H 0 **** 0.053
22431 H 131.702 171.959 37.9312 H 0 **** 0.053
22432 H 131.327 173.377 38.8822 H 0 **** 0.053
22433 H 130.414 171.869 39.1651 H 0 **** 0.053
22434 H 134.934 173.45 43.2757 H 0 **** 0.053
22435 H 133.792 172.437 44.206 H 0 **** 0.053
22436 H 133.251 173.927 43.4346 H 0 **** 0.053
22437 H 133.19 168.769 38.7205 H 0 **** 0.053
22438 H 133.467 170.195 37.6889 H 0 **** 0.053
22439 H 131.835 169.799 38.3046 H 0 **** 0.053
22440 H 137.112 165.855 40.0004 H 0 **** 0.053
22441 H 137.238 167.296 38.9445 H 0 **** 0.053
22442 H 135.677 166.795 39.6601 H 0 **** 0.053
22443 H 140.256 166.932 41.4385 H 0 **** 0.053
22444 H 139.135 166.347 40.2345 H 0 **** 0.053
22445 H 139.148 165.578 41.8543 H 0 **** 0.053
22446 H 140.718 166.862 44.5966 H 0 **** 0.41
22447 H 145.621 169.525 44.2823 H 0 **** 0.053
22448 H 144.737 168.057 43.8179 H 0 **** 0.053
22449 H 145.064 168.378 45.541 H 0 **** 0.053
22450 H 144.758 172.076 46.8705 H 0 **** 0.053
22451 H 145.366 171.631 45.2587 H 0 **** 0.053
22452 H 145.465 170.462 46.616 H 0 **** 0.053
22453 H 141.314 171.338 50.1769 H 0 **** 0.41
22454 H 136.087 172.169 47.0379 H 0 **** 0.41
22455 H 142.651 175.868 57.9313 H 0 **** 0.053
22456 H 143.425 174.496 58.7138 H 0 **** 0.053
22457 H 141.744 174.887 59.1219 H 0 **** 0.053
22458 H 144.615 172.875 57.6955 H 0 **** 0.053
22459 H 144.067 171.21 57.4531 H 0 **** 0.053
22460 H 143.457 172.134 58.8329 H 0 **** 0.053
22461 C 115.101 92.9044 23.0519 C.2 0 **** 0
22462 C 115.061 91.8797 22.1193 C.2 0 **** 0
22463 C 115.665 92.0449 20.8827 C.2 0 **** 0
22464 C 116.311 93.2236 20.6036 C.2 0 **** 0
22465 C 116.403 94.2332 21.5541 C.2 0 **** 0
22466 C 115.803 94.0664 22.7853 C.2 0 **** 0
22467 C 116.961 93.4425 19.2521 C.3 0 **** -0.106
22468 C 116.741 92.4066 18.1583 C.2 0 **** 0
22469 C 116.097 91.231 18.428 C.2 0 **** 0
22470 C 115.608 90.929 19.8429 C.3 0 **** -0.106
22471 C 115.885 90.3096 17.3977 C.2 0 **** 0
22472 C 116.246 90.5959 16.0962 C.2 0 **** 0
22473 C 116.99 91.7426 15.8412 C.2 0 **** 0
22474 C 117.227 92.6674 16.8654 C.2 0 **** 0
22475 C 117.919 93.839 16.5991 C.2 0 **** -0.1268
22476 C 118.297 94.2501 15.3377 C.2 0 **** 0
22477 C 117.905 93.3442 14.2893 C.2 0 **** 0
22478 C 117.486 92.0426 14.5757 C.2 0 **** 0.042
22479 C 118.184 93.7155 12.8192 C.3 0 **** 0
22480 C 118.919 95.026 12.5263 C.3 0 **** 0
22481 C 119.491 95.8093 13.7247 C.2 0 **** 0
22482 C 119.151 95.4399 15.0674 C.2 0 **** 0
22483 C 118.506 95.7081 11.2047 C.3 0 **** -0.106
22484 C 116.984 95.7548 11.0355 C.3 0 **** -0.053
22485 C 116.362 94.3256 11.0054 C.3 0 **** -0.053
22486 C 117.259 93.2484 11.6696 C.3 0 **** -0.106
22487 C 119.79 96.1695 16.0895 C.2 0 **** 0.042
22488 C 120.665 97.1925 15.7896 C.2 0 **** 0.052
22489 C 120.99 97.5018 14.4774 C.2 0 **** 0.052
22490 C 120.452 96.7671 13.454 C.2 0 **** 0.042
22491 C 121.951 98.6057 14.1209 C.2 0 **** 0.367
22492 C 122.542 99.3651 15.2623 C.2 0 **** 0
22493 C 122.245 99.0623 16.5317 C.2 0 **** 0
22494 C 121.302 97.9816 16.9048 C.2 0 **** 0.367
22495 C 122.84 99.8428 17.6809 C.3 0 **** -0.106
22496 C 122.982 101.328 17.2622 C.3 0 **** -0.106
22497 C 123.743 101.454 15.9423 C.2 0 **** 0
22498 C 123.515 100.485 14.9393 C.2 0 **** 0.2405
22499 N 124.13 100.539 13.7386 N.2 0 **** -0.481
22500 C 124.893 101.595 13.4757 C.2 0 **** 0.2405
22501 C 125.184 102.582 14.4466 C.2 0 **** 0
22502 C 124.607 102.49 15.6883 C.2 0 **** 0
22503 C 124.867 103.536 16.7651 C.3 0 **** -0.106
22504 C 126.087 104.414 16.4598 C.3 0 **** -0.106
22505 C 126.064 104.873 15.0054 C.3 0 **** -0.106
22506 C 126.181 103.651 14.0748 C.3 0 **** -0.053
22507 C 125.994 104.053 12.5879 C.3 0 **** -0.106
22508 C 126.017 102.822 11.7209 C.2 0 **** 0
22509 C 125.449 101.629 12.1717 C.2 0 **** 0
22510 C 125.441 100.506 11.3254 C.2 0 **** -0.1268
22511 C 125.969 100.606 10.0525 C.2 0 **** -0.1268
22512 C 126.496 101.796 9.58344 C.2 0 **** 0
22513 C 126.501 102.912 10.4199 C.2 0 **** 0
22514 C 115.937 95.1296 23.8452 C.3 0 **** -0.106
22515 C 114.871 96.2311 23.6654 C.3 0 **** -0.159
22516 C 114.374 92.7391 24.3613 C.3 0 **** -0.159
22517 C 117.147 95.4937 21.1768 C.3 0 **** -0.159
22518 C 114.354 90.5858 22.4418 C.3 0 **** -0.159
22519 C 115.191 88.9955 17.7576 C.3 0 **** -0.159
22520 C 115.792 89.6302 15.0277 C.3 0 **** -0.159
22521 O 117.493 91.1107 13.5765 O.3 0 **** -0.452
22522 C 116.084 93.8035 9.59419 C.3 0 **** -0.159
22523 C 116.678 96.5891 9.78599 C.3 0 **** -0.159
22524 O 120.814 96.9391 12.1453 O.3 0 **** -0.452
22525 O 119.565 95.8649 17.3923 O.3 0 **** -0.452
22526 O 121.063 97.7416 18.0449 O.2 0 **** -0.419
22527 O 122.184 98.8732 12.9785 O.2 0 **** -0.419
22528 C 127.039 104.234 9.89575 C.3 0 **** -0.159
22529 C 127.028 101.837 8.16478 C.3 0 **** -0.159
22530 H 116.589 94.4183 18.8629 H 0 **** 0.053
22531 H 118.061 93.5611 19.4074 H 0 **** 0.053
22532 H 116.19 90.062 20.2376 H 0 **** 0.053
22533 H 114.551 90.589 19.7687 H 0 **** 0.053
22534 H 118.106 94.4479 17.4547 H 0 **** 0.1268
22535 H 118.894 96.7266 11.1428 H 0 **** 0.053
22536 H 118.96 95.12 10.4039 H 0 **** 0.053
22537 H 116.565 96.2903 11.9064 H 0 **** 0.053
22538 H 115.412 94.3709 11.5545 H 0 **** 0.053
22539 H 117.956 92.8552 10.9234 H 0 **** 0.053
22540 H 116.616 92.4191 11.9874 H 0 **** 0.053
22541 H 122.229 99.7825 18.5996 H 0 **** 0.053
22542 H 123.826 99.4117 17.927 H 0 **** 0.053
22543 H 123.465 101.86 18.0999 H 0 **** 0.053
22544 H 121.967 101.77 17.1699 H 0 **** 0.053
22545 H 123.977 104.186 16.8664 H 0 **** 0.053
22546 H 125.03 103.068 17.7529 H 0 **** 0.053
22547 H 127.016 103.84 16.64 H 0 **** 0.053
22548 H 126.12 105.282 17.1442 H 0 **** 0.053
22549 H 126.885 105.585 14.7959 H 0 **** 0.053
22550 H 125.118 105.407 14.7973 H 0 **** 0.053
22551 H 127.213 103.238 14.1925 H 0 **** 0.053
22552 H 125.021 104.583 12.4748 H 0 **** 0.053
22553 H 126.784 104.789 12.3232 H 0 **** 0.053
22554 H 125.014 99.5527 11.6602 H 0 **** 0.1268
22555 H 125.955 99.7236 9.39261 H 0 **** 0.1268
22556 H 116.942 95.5944 23.8465 H 0 **** 0.053
22557 H 115.85 94.7153 24.8652 H 0 **** 0.053
22558 H 113.853 95.8096 23.712 H 0 **** 0.053
22559 H 114.981 96.7435 22.6956 H 0 **** 0.053
22560 H 114.944 97.0043 24.4564 H 0 **** 0.053
22561 H 113.48 92.0911 24.2782 H 0 **** 0.053
22562 H 113.982 93.6951 24.7577 H 0 **** 0.053
22563 H 115.026 92.2999 25.1481 H 0 **** 0.053
22564 H 116.667 96.0086 20.314 H 0 **** 0.053
22565 H 118.198 95.2819 20.8847 H 0 **** 0.053
22566 H 117.205 96.2549 21.9687 H 0 **** 0.053
22567 H 114.733 89.7191 21.8666 H 0 **** 0.053
22568 H 113.263 90.6532 22.2361 H 0 **** 0.053
22569 H 114.473 90.2917 23.5021 H 0 **** 0.053
22570 H 115.532 88.1512 17.1327 H 0 **** 0.053
22571 H 114.084 89.0674 17.6534 H 0 **** 0.053
22572 H 115.394 88.6597 18.8 H 0 **** 0.053
22573 H 115.422 90.1555 14.119 H 0 **** 0.053
22574 H 114.915 88.9882 15.315 H 0 **** 0.053
22575 H 116.597 88.9235 14.6979 H 0 **** 0.053
22576 H 118.091 91.393 12.8795 H 0 **** 0.41
22577 H 115.334 94.4155 9.0751 H 0 **** 0.053
22578 H 115.692 92.7691 9.63475 H 0 **** 0.053
22579 H 117.007 93.7814 8.98279 H 0 **** 0.053
22580 H 117.077 97.6153 9.89457 H 0 **** 0.053
22581 H 115.594 96.6725 9.61505 H 0 **** 0.053
22582 H 117.147 96.154 8.88087 H 0 **** 0.053
22583 H 121.374 97.7283 12.0875 H 0 **** 0.41
22584 H 120.045 96.4822 17.9647 H 0 **** 0.41
22585 H 126.329 105.061 10.0806 H 0 **** 0.053
22586 H 127.219 104.237 8.80383 H 0 **** 0.053
22587 H 128.004 104.503 10.3729 H 0 **** 0.053
22588 H 126.457 102.54 7.53124 H 0 **** 0.053
22589 H 126.967 100.852 7.6693 H 0 **** 0.053
22590 H 128.089 102.14 8.13162 H 0 **** 0.053
22591 C 107.128 166.424 78.1669 C.2 0 **** 0
22592 C 106.806 165.091 77.9678 C.2 0 **** 0
22593 C 107.524 164.101 78.6179 C.2 0 **** 0
22594 C 108.542 164.458 79.4671 C.2 0 **** 0
22595 C 108.834 165.794 79.7138 C.2 0 **** 0
22596 C 108.116 166.779 79.0678 C.2 0 **** 0
22597 C 109.361 163.397 80.1751 C.3 0 **** -0.106
22598 C 109.147 161.937 79.7996 C.2 0 **** 0
22599 C 108.136 161.573 78.9537 C.2 0 **** 0
22600 C 107.189 162.629 78.3887 C.3 0 **** -0.106
22601 C 107.98 160.228 78.6048 C.2 0 **** 0
22602 C 108.873 159.268 79.0395 C.2 0 **** 0
22603 C 109.836 159.621 79.9785 C.2 0 **** 0
22604 C 109.994 160.961 80.3519 C.2 0 **** 0
22605 C 110.991 161.322 81.245 C.2 0 **** -0.1268
22606 C 111.962 160.463 81.7169 C.2 0 **** 0
22607 C 111.857 159.125 81.1949 C.2 0 **** 0
22608 C 110.698 158.689 80.5471 C.2 0 **** 0.042
22609 C 112.925 158.077 81.5668 C.3 0 **** 0
22610 C 114.045 158.489 82.526 C.3 0 **** 0
22611 C 113.938 159.871 83.2011 C.2 0 **** 0
22612 C 112.951 160.817 82.7721 C.2 0 **** 0
22613 C 115.396 157.789 82.2681 C.3 0 **** -0.106
22614 C 115.768 157.792 80.7822 C.3 0 **** -0.053
22615 C 114.711 157.038 79.9197 C.3 0 **** -0.053
22616 C 113.32 156.936 80.5992 C.3 0 **** -0.106
22617 C 112.885 162.017 83.5083 C.2 0 **** 0.042
22618 C 113.751 162.255 84.5546 C.2 0 **** 0.052
22619 C 114.675 161.302 84.9571 C.2 0 **** 0.052
22620 C 114.72 160.09 84.3206 C.2 0 **** 0.042
22621 C 115.624 161.53 86.1045 C.2 0 **** 0.367
22622 C 115.526 162.85 86.7952 C.2 0 **** 0
22623 C 114.627 163.768 86.4224 C.2 0 **** 0
22624 C 113.684 163.566 85.2961 C.2 0 **** 0.367
22625 C 114.541 165.106 87.1202 C.3 0 **** -0.106
22626 C 115.967 165.554 87.5298 C.3 0 **** -0.106
22627 C 116.675 164.46 88.33 C.2 0 **** 0
22628 C 116.467 163.113 87.9568 C.2 0 **** 0.2405
22629 N 117.076 162.091 88.5967 N.2 0 **** -0.481
22630 C 117.964 162.386 89.5408 C.2 0 **** 0.2405
22631 C 118.193 163.711 89.9793 C.2 0 **** 0
22632 C 117.527 164.744 89.368 C.2 0 **** 0
22633 C 117.753 166.192 89.784 C.3 0 **** -0.106
22634 C 118.448 166.319 91.1452 C.3 0 **** -0.106
22635 C 119.627 165.356 91.2348 C.3 0 **** -0.106
22636 C 119.117 163.904 91.1562 C.3 0 **** -0.053
22637 C 120.293 162.896 91.0756 C.3 0 **** -0.106
22638 C 119.756 161.5 90.9007 C.2 0 **** 0
22639 C 118.62 161.272 90.1215 C.2 0 **** 0
22640 C 118.166 159.954 89.9344 C.2 0 **** -0.1268
22641 C 118.864 158.904 90.4989 C.2 0 **** -0.1268
22642 C 120.014 159.119 91.2371 C.2 0 **** 0
22643 C 120.469 160.424 91.4209 C.2 0 **** 0
22644 C 108.384 168.232 79.3629 C.3 0 **** -0.106
22645 C 109.555 168.766 78.5108 C.3 0 **** -0.159
22646 C 106.388 167.485 77.3943 C.3 0 **** -0.159
22647 C 109.957 166.107 80.6758 C.3 0 **** -0.159
22648 C 105.679 164.712 77.038 C.3 0 **** -0.159
22649 C 106.815 159.868 77.6835 C.3 0 **** -0.159
22650 C 108.74 157.886 78.4451 C.3 0 **** -0.159
22651 O 110.482 157.346 80.4126 O.3 0 **** -0.452
22652 C 115.102 155.598 79.5842 C.3 0 **** -0.159
22653 C 117.188 157.227 80.6546 C.3 0 **** -0.159
22654 O 115.524 159.063 84.7349 O.3 0 **** -0.452
22655 O 111.954 162.956 83.2061 O.3 0 **** -0.452
22656 O 112.898 164.406 84.9954 O.2 0 **** -0.419
22657 O 116.435 160.704 86.4056 O.2 0 **** -0.419
22658 C 121.756 160.663 92.193 C.3 0 **** -0.159
22659 C 120.743 157.914 91.7983 C.3 0 **** -0.159
22660 H 110.434 163.633 79.989 H 0 **** 0.053
22661 H 109.198 163.505 81.2755 H 0 **** 0.053
22662 H 106.168 162.442 78.8018 H 0 **** 0.053
22663 H 107.117 162.465 77.2908 H 0 **** 0.053
22664 H 110.992 162.354 81.5176 H 0 **** 0.1268
22665 H 116.204 158.261 82.8298 H 0 **** 0.053
22666 H 115.281 156.764 82.629 H 0 **** 0.053
22667 H 115.796 158.844 80.4448 H 0 **** 0.053
22668 H 114.597 157.597 78.981 H 0 **** 0.053
22669 H 113.297 156.044 81.2317 H 0 **** 0.053
22670 H 112.567 156.801 79.8134 H 0 **** 0.053
22671 H 114.084 165.889 86.4874 H 0 **** 0.053
22672 H 113.896 165 88.0093 H 0 **** 0.053
22673 H 115.866 166.505 88.0802 H 0 **** 0.053
22674 H 116.541 165.797 86.6104 H 0 **** 0.053
22675 H 118.371 166.7 89.0192 H 0 **** 0.053
22676 H 116.801 166.75 89.8403 H 0 **** 0.053
22677 H 117.731 166.085 91.9546 H 0 **** 0.053
22678 H 118.779 167.361 91.3148 H 0 **** 0.053
22679 H 120.196 165.504 92.1725 H 0 **** 0.053
22680 H 120.329 165.548 90.4028 H 0 **** 0.053
22681 H 118.55 163.697 92.0967 H 0 **** 0.053
22682 H 120.944 163.166 90.2136 H 0 **** 0.053
22683 H 120.917 163.013 91.988 H 0 **** 0.053
22684 H 117.267 159.748 89.3393 H 0 **** 0.1268
22685 H 118.505 157.874 90.3445 H 0 **** 0.1268
22686 H 108.605 168.407 80.4341 H 0 **** 0.053
22687 H 107.497 168.866 79.1829 H 0 **** 0.053
22688 H 109.345 168.656 77.4342 H 0 **** 0.053
22689 H 110.491 168.227 78.7312 H 0 **** 0.053
22690 H 109.743 169.841 78.702 H 0 **** 0.053
22691 H 106.042 167.134 76.4022 H 0 **** 0.053
22692 H 107.015 168.368 77.1681 H 0 **** 0.053
22693 H 105.491 167.852 77.9421 H 0 **** 0.053
22694 H 110.93 165.704 80.3145 H 0 **** 0.053
22695 H 109.776 165.665 81.6797 H 0 **** 0.053
22696 H 110.137 167.178 80.8504 H 0 **** 0.053
22697 H 105.223 163.73 77.2721 H 0 **** 0.053
22698 H 106.019 164.662 75.9799 H 0 **** 0.053
22699 H 104.836 165.428 77.0811 H 0 **** 0.053
22700 H 106.411 158.86 77.8847 H 0 **** 0.053
22701 H 107.106 159.907 76.6089 H 0 **** 0.053
22702 H 105.934 160.54 77.8025 H 0 **** 0.053
22703 H 109.729 157.442 78.1941 H 0 **** 0.053
22704 H 108.194 157.846 77.463 H 0 **** 0.053
22705 H 108.214 157.163 79.1211 H 0 **** 0.053
22706 H 111.002 156.871 81.066 H 0 **** 0.41
22707 H 116.008 155.557 78.9652 H 0 **** 0.053
22708 H 114.293 155.1 79.0167 H 0 **** 0.053
22709 H 115.274 155.003 80.5028 H 0 **** 0.053
22710 H 117.907 157.845 81.2251 H 0 **** 0.053
22711 H 117.522 157.215 79.6063 H 0 **** 0.053
22712 H 117.254 156.197 81.0594 H 0 **** 0.053
22713 H 116.112 159.399 85.4283 H 0 **** 0.41
22714 H 112.075 163.736 83.7685 H 0 **** 0.41
22715 H 122.446 161.324 91.6358 H 0 **** 0.053
22716 H 122.33 159.739 92.3947 H 0 **** 0.053
22717 H 121.562 161.132 93.1799 H 0 **** 0.053
22718 H 121.759 157.813 91.3741 H 0 **** 0.053
22719 H 120.217 156.969 91.5764 H 0 **** 0.053
22720 H 120.842 157.968 92.8966 H 0 **** 0.053
22721 C 117.385 166.406 33.2188 C.2 0 **** 0
22722 C 118.566 166.123 33.8869 C.2 0 **** 0
22723 C 118.842 164.825 34.2853 C.2 0 **** 0
22724 C 117.941 163.828 33.999 C.2 0 **** 0
22725 C 116.783 164.095 33.2802 C.2 0 **** 0
22726 C 116.512 165.387 32.8803 C.2 0 **** 0
22727 C 118.203 162.404 34.4451 C.3 0 **** -0.106
22728 C 119.391 162.13 35.356 C.2 0 **** 0
22729 C 120.29 163.116 35.6463 C.2 0 **** 0
22730 C 120.131 164.508 35.0397 C.3 0 **** -0.106
22731 C 121.356 162.842 36.5087 C.2 0 **** 0
22732 C 121.48 161.617 37.1313 C.2 0 **** 0
22733 C 120.626 160.586 36.7577 C.2 0 **** 0
22734 C 119.563 160.838 35.8826 C.2 0 **** 0
22735 C 118.676 159.823 35.5549 C.2 0 **** -0.1268
22736 C 118.674 158.574 36.1385 C.2 0 **** 0
22737 C 119.69 158.399 37.1431 C.2 0 **** 0
22738 C 120.757 159.294 37.2581 C.2 0 **** 0.042
22739 C 119.753 157.081 37.9413 C.3 0 **** 0
22740 C 118.75 155.976 37.6005 C.3 0 **** 0
22741 C 117.855 156.178 36.3617 C.2 0 **** 0
22742 C 117.808 157.447 35.6952 C.2 0 **** 0
22743 C 118.327 155.105 38.8023 C.3 0 **** -0.106
22744 C 117.979 155.953 40.0299 C.3 0 **** -0.053
22745 C 119.196 156.802 40.509 C.3 0 **** -0.053
22746 C 120.258 157.036 39.4033 C.3 0 **** -0.106
22747 C 117.02 157.502 34.5274 C.2 0 **** 0.042
22748 C 116.323 156.396 34.09 C.2 0 **** 0.052
22749 C 116.417 155.178 34.7473 C.2 0 **** 0.052
22750 C 117.232 155.059 35.8416 C.2 0 **** 0.042
22751 C 115.676 153.951 34.2848 C.2 0 **** 0.367
22752 C 114.821 154.109 33.0714 C.2 0 **** 0
22753 C 114.738 155.277 32.4229 C.2 0 **** 0
22754 C 115.457 156.498 32.8606 C.2 0 **** 0.367
22755 C 113.861 155.432 31.2014 C.3 0 **** -0.106
22756 C 112.59 154.564 31.379 C.3 0 **** -0.106
22757 C 112.957 153.12 31.7229 C.2 0 **** 0
22758 C 114.06 152.892 32.5772 C.2 0 **** 0.2405
22759 N 114.432 151.649 32.9488 N.2 0 **** -0.481
22760 C 113.671 150.628 32.5648 C.2 0 **** 0.2405
22761 C 112.574 150.788 31.6865 C.2 0 **** 0
22762 C 112.235 152.048 31.2615 C.2 0 **** 0
22763 C 111.049 152.281 30.3338 C.3 0 **** -0.106
22764 C 110.568 150.997 29.6481 C.3 0 **** -0.106
22765 C 110.475 149.856 30.656 C.3 0 **** -0.106
22766 C 111.878 149.538 31.2085 C.3 0 **** -0.053
22767 C 111.81 148.499 32.3584 C.3 0 **** -0.106
22768 C 113.184 148.289 32.9373 C.2 0 **** 0
22769 C 114.075 149.358 33.0492 C.2 0 **** 0
22770 C 115.335 149.147 33.6365 C.2 0 **** -0.1268
22771 C 115.663 147.895 34.1194 C.2 0 **** -0.1268
22772 C 114.769 146.841 34.0505 C.2 0 **** 0
22773 C 113.518 147.049 33.4716 C.2 0 **** 0
22774 C 115.285 165.685 32.0552 C.3 0 **** -0.106
22775 C 114.047 165.885 32.9534 C.3 0 **** -0.159
22776 C 117.054 167.831 32.8629 C.3 0 **** -0.159
22777 C 115.85 162.942 32.9901 C.3 0 **** -0.159
22778 C 119.553 167.221 34.1963 C.3 0 **** -0.159
22779 C 122.351 163.966 36.7732 C.3 0 **** -0.159
22780 C 122.545 161.49 38.1951 C.3 0 **** -0.159
22781 O 121.877 158.905 37.9379 O.3 0 **** -0.452
22782 C 119.962 156.178 41.6773 C.3 0 **** -0.159
22783 C 117.419 155.013 41.1038 C.3 0 **** -0.159
22784 O 117.461 153.865 36.4712 O.3 0 **** -0.452
22785 O 116.948 158.647 33.8039 O.3 0 **** -0.452
22786 O 115.358 157.517 32.2581 O.2 0 **** -0.419
22787 O 115.746 152.923 34.8944 O.2 0 **** -0.419
22788 C 112.516 145.907 33.4329 C.3 0 **** -0.159
22789 C 115.189 145.504 34.63 C.3 0 **** -0.159
22790 H 117.289 162.055 34.9801 H 0 **** 0.053
22791 H 118.302 161.764 33.5344 H 0 **** 0.053
22792 H 120.987 164.69 34.3464 H 0 **** 0.053
22793 H 120.231 165.249 35.8634 H 0 **** 0.053
22794 H 117.94 160.095 34.8327 H 0 **** 0.1268
22795 H 117.468 154.478 38.5583 H 0 **** 0.053
22796 H 119.176 154.453 39.0186 H 0 **** 0.053
22797 H 117.172 156.649 39.7401 H 0 **** 0.053
22798 H 118.808 157.778 40.8281 H 0 **** 0.053
22799 H 120.965 156.201 39.4048 H 0 **** 0.053
22800 H 120.821 157.943 39.659 H 0 **** 0.053
22801 H 113.561 156.481 31.0221 H 0 **** 0.053
22802 H 114.433 155.109 30.314 H 0 **** 0.053
22803 H 111.998 154.657 30.4527 H 0 **** 0.053
22804 H 111.965 155.008 32.1827 H 0 **** 0.053
22805 H 110.21 152.712 30.9138 H 0 **** 0.053
22806 H 111.292 153.013 29.5421 H 0 **** 0.053
22807 H 111.277 150.712 28.8478 H 0 **** 0.053
22808 H 109.592 151.164 29.1545 H 0 **** 0.053
22809 H 110.039 148.949 30.1966 H 0 **** 0.053
22810 H 109.807 150.146 31.4869 H 0 **** 0.053
22811 H 112.473 149.091 30.3752 H 0 **** 0.053
22812 H 111.117 148.873 33.1453 H 0 **** 0.053
22813 H 111.357 147.566 31.9597 H 0 **** 0.053
22814 H 116.06 149.966 33.7229 H 0 **** 0.1268
22815 H 116.65 147.738 34.5822 H 0 **** 0.1268
22816 H 115.073 164.886 31.3183 H 0 **** 0.053
22817 H 115.415 166.581 31.4233 H 0 **** 0.053
22818 H 114.203 166.711 33.6671 H 0 **** 0.053
22819 H 113.818 164.976 33.5332 H 0 **** 0.053
22820 H 113.145 166.131 32.3575 H 0 **** 0.053
22821 H 117.493 168.566 33.5641 H 0 **** 0.053
22822 H 115.969 168.039 32.8901 H 0 **** 0.053
22823 H 117.391 168.093 31.839 H 0 **** 0.053
22824 H 115.46 162.485 33.9279 H 0 **** 0.053
22825 H 116.357 162.132 32.4218 H 0 **** 0.053
22826 H 114.956 163.202 32.4048 H 0 **** 0.053
22827 H 120.594 166.863 34.3101 H 0 **** 0.053
22828 H 119.292 167.758 35.1335 H 0 **** 0.053
22829 H 119.611 167.974 33.3936 H 0 **** 0.053
22830 H 123.373 163.587 36.953 H 0 **** 0.053
22831 H 122.058 164.585 37.652 H 0 **** 0.053
22832 H 122.465 164.663 35.9121 H 0 **** 0.053
22833 H 122.182 160.927 39.0838 H 0 **** 0.053
22834 H 122.885 162.464 38.642 H 0 **** 0.053
22835 H 123.473 160.975 37.8333 H 0 **** 0.053
22836 H 121.911 157.945 37.974 H 0 **** 0.41
22837 H 119.338 156.101 42.5777 H 0 **** 0.053
22838 H 120.841 156.797 41.9385 H 0 **** 0.053
22839 H 120.337 155.168 41.4193 H 0 **** 0.053
22840 H 116.515 154.494 40.7351 H 0 **** 0.053
22841 H 117.136 155.565 42.0124 H 0 **** 0.053
22842 H 118.152 154.228 41.38 H 0 **** 0.053
22843 H 116.86 153.204 36.0946 H 0 **** 0.41
22844 H 116.334 158.533 33.0625 H 0 **** 0.41
22845 H 111.53 146.22 33.8232 H 0 **** 0.053
22846 H 112.813 145.035 34.0464 H 0 **** 0.053
22847 H 112.366 145.526 32.4012 H 0 **** 0.053
22848 H 114.546 145.203 35.4772 H 0 **** 0.053
22849 H 116.223 145.524 35.0154 H 0 **** 0.053
22850 H 115.15 144.699 33.8762 H 0 **** 0.053
22851 C 118.253 153.933 67.5902 C.2 0 **** 0
22852 C 117.872 155.25 67.3851 C.2 0 **** 0
22853 C 118.224 155.897 66.2118 C.2 0 **** 0
22854 C 118.932 155.214 65.2542 C.2 0 **** 0
22855 C 119.27 153.878 65.4304 C.2 0 **** 0
22856 C 118.92 153.235 66.5993 C.2 0 **** 0
22857 C 119.349 155.901 63.9692 C.3 0 **** -0.106
22858 C 119.128 157.4 63.8417 C.2 0 **** 0
22859 C 118.439 158.087 64.8004 C.2 0 **** 0
22860 C 117.832 157.353 65.992 C.3 0 **** -0.106
22861 C 118.307 159.474 64.6904 C.2 0 **** 0
22862 C 118.877 160.169 63.6399 C.2 0 **** 0
22863 C 119.474 159.455 62.6056 C.2 0 **** 0
22864 C 119.63 158.069 62.7118 C.2 0 **** 0
22865 C 120.296 157.367 61.7186 C.2 0 **** -0.1268
22866 C 120.953 157.955 60.658 C.2 0 **** 0
22867 C 120.885 159.392 60.6544 C.2 0 **** 0
22868 C 119.977 160.075 61.4674 C.2 0 **** 0.042
22869 C 121.647 160.191 59.5792 C.3 0 **** 0
22870 C 122.426 159.415 58.5139 C.3 0 **** 0
22871 C 122.25 157.884 58.4728 C.2 0 **** 0
22872 C 121.57 157.199 59.533 C.2 0 **** 0
22873 C 123.703 160.122 58.0109 C.3 0 **** -0.106
22874 C 124.546 160.674 59.1648 C.3 0 **** -0.053
22875 C 123.759 161.729 60.0003 C.3 0 **** -0.053
22876 C 122.218 161.603 59.8598 C.3 0 **** -0.106
22877 C 121.397 155.811 59.3615 C.2 0 **** 0.042
22878 C 121.886 155.17 58.2439 C.2 0 **** 0.052
22879 C 122.514 155.872 57.2258 C.2 0 **** 0.052
22880 C 122.637 157.233 57.3154 C.2 0 **** 0.042
22881 C 123.048 155.198 55.9899 C.2 0 **** 0.367
22882 C 122.873 153.717 55.9126 C.2 0 **** 0
22883 C 122.255 153.035 56.8838 C.2 0 **** 0
22884 C 121.722 153.678 58.1084 C.2 0 **** 0.367
22885 C 122.091 151.535 56.803 C.3 0 **** -0.106
22886 C 123.34 150.926 56.1178 C.3 0 **** -0.106
22887 C 123.619 151.611 54.7801 C.2 0 **** 0
22888 C 123.401 153.004 54.68 C.2 0 **** 0.2405
22889 N 123.648 153.687 53.5418 N.2 0 **** -0.481
22890 C 124.2 153.03 52.5269 C.2 0 **** 0.2405
22891 C 124.414 151.632 52.5546 C.2 0 **** 0
22892 C 124.105 150.93 53.6923 C.2 0 **** 0
22893 C 124.337 149.426 53.7855 C.3 0 **** -0.106
22894 C 124.55 148.77 52.4157 C.3 0 **** -0.106
22895 C 125.521 149.594 51.5751 C.3 0 **** -0.106
22896 C 124.911 150.979 51.2886 C.3 0 **** -0.053
22897 C 125.93 151.909 50.5791 C.3 0 **** -0.106
22898 C 125.333 153.281 50.4053 C.2 0 **** 0
22899 C 124.502 153.82 51.3891 C.2 0 **** 0
22900 C 123.994 155.121 51.2258 C.2 0 **** -0.1268
22901 C 124.347 155.857 50.1111 C.2 0 **** -0.1268
22902 C 125.204 155.345 49.1525 C.2 0 **** 0
22903 C 125.711 154.056 49.3143 C.2 0 **** 0
22904 C 119.233 151.772 66.7844 C.3 0 **** -0.106
22905 C 120.671 151.572 67.3077 C.3 0 **** -0.159
22906 C 117.933 153.269 68.9039 C.3 0 **** -0.159
22907 C 120.039 153.192 64.3247 C.3 0 **** -0.159
22908 C 117.084 155.987 68.4405 C.3 0 **** -0.159
22909 C 117.444 160.187 65.7362 C.3 0 **** -0.159
22910 C 118.767 161.675 63.6731 C.3 0 **** -0.159
22911 O 119.677 161.373 61.1745 O.3 0 **** -0.452
22912 C 124.081 163.177 59.6262 C.3 0 **** -0.159
22913 C 125.858 161.206 58.5741 C.3 0 **** -0.159
22914 O 123.146 158.002 56.3042 O.3 0 **** -0.452
22915 O 120.731 155.083 60.2932 O.3 0 **** -0.452
22916 O 121.175 153.038 58.9478 O.2 0 **** -0.419
22917 O 123.62 155.823 55.1451 O.2 0 **** -0.419
22918 C 126.687 153.506 48.2878 C.3 0 **** -0.159
22919 C 125.57 156.224 47.9731 C.3 0 **** -0.159
22920 H 120.443 155.723 63.8445 H 0 **** 0.053
22921 H 118.844 155.388 63.1138 H 0 **** 0.053
22922 H 116.721 157.403 65.914 H 0 **** 0.053
22923 H 118.105 157.921 66.9091 H 0 **** 0.053
22924 H 120.317 156.31 61.8598 H 0 **** 0.1268
22925 H 124.326 159.449 57.4184 H 0 **** 0.053
22926 H 123.366 160.934 57.3634 H 0 **** 0.053
22927 H 124.798 159.83 59.832 H 0 **** 0.053
22928 H 124.024 161.574 61.0546 H 0 **** 0.053
22929 H 121.891 162.188 58.9953 H 0 **** 0.053
22930 H 121.76 162.049 60.7501 H 0 **** 0.053
22931 H 121.958 151.066 57.795 H 0 **** 0.053
22932 H 121.18 151.311 56.2213 H 0 **** 0.053
22933 H 123.167 149.84 56.0265 H 0 **** 0.053
22934 H 124.21 151.036 56.8004 H 0 **** 0.053
22935 H 125.225 149.231 54.4164 H 0 **** 0.053
22936 H 123.487 148.915 54.2724 H 0 **** 0.053
22937 H 123.585 148.698 51.8807 H 0 **** 0.053
22938 H 124.918 147.734 52.536 H 0 **** 0.053
22939 H 125.759 149.084 50.6222 H 0 **** 0.053
22940 H 126.475 149.714 52.1191 H 0 **** 0.053
22941 H 124.045 150.827 50.5981 H 0 **** 0.053
22942 H 126.856 151.97 51.1954 H 0 **** 0.053
22943 H 126.225 151.436 49.6175 H 0 **** 0.053
22944 H 123.327 155.563 51.9766 H 0 **** 0.1268
22945 H 123.95 156.878 49.9915 H 0 **** 0.1268
22946 H 119.104 151.196 65.8476 H 0 **** 0.053
22947 H 118.53 151.281 67.4809 H 0 **** 0.053
22948 H 120.819 152.091 68.2695 H 0 **** 0.053
22949 H 121.416 151.962 66.5954 H 0 **** 0.053
22950 H 120.901 150.5 67.4722 H 0 **** 0.053
22951 H 117.901 153.982 69.751 H 0 **** 0.053
22952 H 118.693 152.522 69.2044 H 0 **** 0.053
22953 H 116.951 152.746 68.8783 H 0 **** 0.053
22954 H 121.027 153.676 64.1529 H 0 **** 0.053
22955 H 119.491 153.222 63.3587 H 0 **** 0.053
22956 H 120.268 152.131 64.5051 H 0 **** 0.053
22957 H 116.473 156.817 68.0378 H 0 **** 0.053
22958 H 117.75 156.426 69.217 H 0 **** 0.053
22959 H 116.359 155.332 68.9596 H 0 **** 0.053
22960 H 116.885 161.045 65.3171 H 0 **** 0.053
22961 H 118.049 160.563 66.5889 H 0 **** 0.053
22962 H 116.642 159.54 66.1651 H 0 **** 0.053
22963 H 119.718 162.169 63.3752 H 0 **** 0.053
22964 H 118.564 162.109 64.6888 H 0 **** 0.053
22965 H 117.963 162.077 63.0025 H 0 **** 0.053
22966 H 119.885 161.544 60.2525 H 0 **** 0.41
22967 H 125.131 163.426 59.8301 H 0 **** 0.053
22968 H 123.457 163.877 60.2147 H 0 **** 0.053
22969 H 123.873 163.372 58.5558 H 0 **** 0.053
22970 H 126.41 160.398 58.0582 H 0 **** 0.053
22971 H 126.517 161.608 59.3581 H 0 **** 0.053
22972 H 125.674 162.002 57.8245 H 0 **** 0.053
22973 H 123.497 157.409 55.6231 H 0 **** 0.41
22974 H 120.74 154.146 60.0494 H 0 **** 0.41
22975 H 127.591 153.089 48.7706 H 0 **** 0.053
22976 H 127.058 154.267 47.5752 H 0 **** 0.053
22977 H 126.229 152.701 47.6756 H 0 **** 0.053
22978 H 126.652 156.451 47.9487 H 0 **** 0.053
22979 H 125.048 157.197 48.0012 H 0 **** 0.053
22980 H 125.305 155.753 47.0107 H 0 **** 0.053
22981 C 122.576 136.301 93.5232 C.2 0 **** 0
22982 C 123.595 136.442 94.4519 C.2 0 **** 0
22983 C 124.597 135.487 94.5311 C.2 0 **** 0
22984 C 124.572 134.416 93.6725 C.2 0 **** 0
22985 C 123.584 134.298 92.7023 C.2 0 **** 0
22986 C 122.589 135.25 92.6232 C.2 0 **** 0
22987 C 125.64 133.344 93.75 C.3 0 **** -0.106
22988 C 126.638 133.388 94.8994 C.2 0 **** 0
22989 C 126.668 134.45 95.7591 C.2 0 **** 0
22990 C 125.712 135.625 95.5641 C.3 0 **** -0.106
22991 C 127.577 134.451 96.8219 C.2 0 **** 0
22992 C 128.395 133.365 97.0645 C.2 0 **** 0
22993 C 128.436 132.333 96.1343 C.2 0 **** 0
22994 C 127.545 132.325 95.0545 C.2 0 **** 0
22995 C 127.546 131.267 94.1579 C.2 0 **** -0.1268
22996 C 128.288 130.115 94.3149 C.2 0 **** 0
22997 C 129.082 130.094 95.5159 C.2 0 **** 0
22998 C 129.314 131.259 96.2517 C.2 0 **** 0.042
22999 C 129.897 128.833 95.8674 C.3 0 **** 0
23000 C 129.868 127.653 94.8925 C.3 0 **** 0
23001 C 129.172 127.864 93.5334 C.2 0 **** 0
23002 C 128.388 129.039 93.2901 C.2 0 **** 0
23003 C 129.99 126.268 95.5622 C.3 0 **** -0.106
23004 C 129.068 126.137 96.7785 C.3 0 **** -0.053
23005 C 129.41 127.189 97.8765 C.3 0 **** -0.053
23006 C 130.175 128.424 97.3337 C.3 0 **** -0.106
23007 C 127.861 129.172 91.9896 C.2 0 **** 0.042
23008 C 128.076 128.2 91.0355 C.2 0 **** 0.052
23009 C 128.863 127.09 91.3015 C.2 0 **** 0.052
23010 C 129.46 126.959 92.5275 C.2 0 **** 0.042
23011 C 129.125 126.02 90.2744 C.2 0 **** 0.367
23012 C 128.485 126.209 88.9395 C.2 0 **** 0
23013 C 127.736 127.286 88.6704 C.2 0 **** 0
23014 C 127.465 128.351 89.6657 C.2 0 **** 0.367
23015 C 127.082 127.465 87.3193 C.3 0 **** -0.106
23016 C 126.65 126.079 86.7801 C.3 0 **** -0.106
23017 C 127.82 125.095 86.7974 C.2 0 **** 0
23018 C 128.728 125.15 87.8796 C.2 0 **** 0.2405
23019 N 129.773 124.3 87.98 N.2 0 **** -0.481
23020 C 129.879 123.331 87.0766 C.2 0 **** 0.2405
23021 C 129.021 123.242 85.9556 C.2 0 **** 0
23022 C 127.997 124.145 85.8225 C.2 0 **** 0
23023 C 127.029 124.082 84.6476 C.3 0 **** -0.106
23024 C 127.547 123.211 83.4964 C.3 0 **** -0.106
23025 C 128.111 121.899 84.0319 C.3 0 **** -0.106
23026 C 129.333 122.186 84.9241 C.3 0 **** -0.053
23027 C 129.837 120.897 85.6239 C.3 0 **** -0.106
23028 C 130.967 121.234 86.5604 C.2 0 **** 0
23029 C 130.954 122.429 87.2818 C.2 0 **** 0
23030 C 131.996 122.7 88.1863 C.2 0 **** -0.1268
23031 C 133.001 121.77 88.3694 C.2 0 **** -0.1268
23032 C 132.999 120.565 87.6894 C.2 0 **** 0
23033 C 131.964 120.293 86.7948 C.2 0 **** 0
23034 C 121.54 135.165 91.5446 C.3 0 **** -0.106
23035 C 120.382 134.237 91.968 C.3 0 **** -0.159
23036 C 121.454 137.306 93.5016 C.3 0 **** -0.159
23037 C 123.636 133.1 91.7828 C.3 0 **** -0.159
23038 C 123.615 137.628 95.3845 C.3 0 **** -0.159
23039 C 127.595 135.677 97.7347 C.3 0 **** -0.159
23040 C 129.189 133.376 98.3489 C.3 0 **** -0.159
23041 O 130.354 131.286 97.1371 O.3 0 **** -0.452
23042 C 130.286 126.638 99.001 C.3 0 **** -0.159
23043 C 129.14 124.686 97.2682 C.3 0 **** -0.159
23044 O 130.339 125.953 92.8226 O.3 0 **** -0.452
23045 O 127.144 130.272 91.65 O.3 0 **** -0.452
23046 O 126.796 129.293 89.3881 O.2 0 **** -0.419
23047 O 129.779 125.054 90.5431 O.2 0 **** -0.419
23048 C 131.932 118.953 86.0791 C.3 0 **** -0.159
23049 C 134.118 119.581 87.967 C.3 0 **** -0.159
23050 H 125.116 132.362 93.8049 H 0 **** 0.053
23051 H 126.21 133.347 92.789 H 0 **** 0.053
23052 H 126.314 136.527 95.3006 H 0 **** 0.053
23053 H 125.238 135.84 96.5471 H 0 **** 0.053
23054 H 126.877 131.383 93.3347 H 0 **** 0.1268
23055 H 129.757 125.464 94.8619 H 0 **** 0.053
23056 H 131.034 126.167 95.8645 H 0 **** 0.053
23057 H 128.033 126.325 96.4389 H 0 **** 0.053
23058 H 128.461 127.531 98.3098 H 0 **** 0.053
23059 H 131.247 128.212 97.3416 H 0 **** 0.053
23060 H 130 129.261 98.0213 H 0 **** 0.053
23061 H 126.2 128.13 87.3576 H 0 **** 0.053
23062 H 127.808 127.94 86.6364 H 0 **** 0.053
23063 H 126.224 126.236 85.7743 H 0 **** 0.053
23064 H 125.813 125.699 87.4052 H 0 **** 0.053
23065 H 126.059 123.675 84.994 H 0 **** 0.053
23066 H 126.821 125.087 84.2394 H 0 **** 0.053
23067 H 128.345 123.748 82.9495 H 0 **** 0.053
23068 H 126.741 123.021 82.7629 H 0 **** 0.053
23069 H 128.399 121.22 83.2069 H 0 **** 0.053
23070 H 127.337 121.374 84.621 H 0 **** 0.053
23071 H 130.151 122.56 84.261 H 0 **** 0.053
23072 H 128.995 120.438 86.1898 H 0 **** 0.053
23073 H 130.124 120.162 84.8398 H 0 **** 0.053
23074 H 132.016 123.637 88.7563 H 0 **** 0.1268
23075 H 133.81 121.986 89.0849 H 0 **** 0.1268
23076 H 121.957 134.809 90.5827 H 0 **** 0.053
23077 H 121.125 136.156 91.2873 H 0 **** 0.053
23078 H 119.907 134.594 92.8973 H 0 **** 0.053
23079 H 120.734 133.207 92.1416 H 0 **** 0.053
23080 H 119.591 134.189 91.192 H 0 **** 0.053
23081 H 121.248 137.744 94.498 H 0 **** 0.053
23082 H 120.487 136.864 93.1931 H 0 **** 0.053
23083 H 121.664 138.151 92.8095 H 0 **** 0.053
23084 H 123.542 132.146 92.3493 H 0 **** 0.053
23085 H 124.593 133.05 91.2208 H 0 **** 0.053
23086 H 122.841 133.061 91.0228 H 0 **** 0.053
23087 H 124.628 137.886 95.7515 H 0 **** 0.053
23088 H 122.984 137.453 96.2838 H 0 **** 0.053
23089 H 123.25 138.553 94.8991 H 0 **** 0.053
23090 H 128.599 135.885 98.1459 H 0 **** 0.053
23091 H 126.894 135.567 98.5937 H 0 **** 0.053
23092 H 127.316 136.621 97.2123 H 0 **** 0.053
23093 H 129.188 132.382 98.8497 H 0 **** 0.053
23094 H 128.785 134.055 99.1476 H 0 **** 0.053
23095 H 130.261 133.673 98.2039 H 0 **** 0.053
23096 H 130.989 130.603 96.9048 H 0 **** 0.41
23097 H 129.773 125.843 99.5548 H 0 **** 0.053
23098 H 130.534 127.439 99.7214 H 0 **** 0.053
23099 H 131.242 126.237 98.6114 H 0 **** 0.053
23100 H 128.815 123.989 96.4728 H 0 **** 0.053
23101 H 128.486 124.523 98.1386 H 0 **** 0.053
23102 H 130.175 124.4 97.5449 H 0 **** 0.053
23103 H 130.336 125.322 92.0871 H 0 **** 0.41
23104 H 126.812 130.186 90.7439 H 0 **** 0.41
23105 H 130.942 118.468 86.1715 H 0 **** 0.053
23106 H 132.658 118.219 86.4782 H 0 **** 0.053
23107 H 132.156 119.059 84.9976 H 0 **** 0.053
23108 H 133.739 118.641 88.4087 H 0 **** 0.053
23109 H 134.858 119.984 88.6799 H 0 **** 0.053
23110 H 134.673 119.321 87.0493 H 0 **** 0.053
23111 C 137.242 186.36 4.75551 C.2 0 **** 0
23112 C 136.995 185.009 4.56381 C.2 0 **** 0
23113 C 138.051 184.131 4.38184 C.2 0 **** 0
23114 C 139.336 184.613 4.40907 C.2 0 **** 0
23115 C 139.593 185.956 4.65603 C.2 0 **** 0
23116 C 138.541 186.828 4.83949 C.2 0 **** 0
23117 C 140.511 183.68 4.19118 C.3 0 **** -0.106
23118 C 140.235 182.242 3.7762 C.2 0 **** 0
23119 C 138.958 181.755 3.74574 C.2 0 **** 0
23120 C 137.786 182.646 4.15153 C.3 0 **** -0.106
23121 C 138.732 180.437 3.33533 C.2 0 **** 0
23122 C 139.767 179.64 2.88881 C.2 0 **** 0
23123 C 141.073 180.098 3.01638 C.2 0 **** 0
23124 C 141.317 181.41 3.44199 C.2 0 **** 0
23125 C 142.617 181.887 3.51497 C.2 0 **** -0.1268
23126 C 143.725 181.2 3.06334 C.2 0 **** 0
23127 C 143.419 179.913 2.49403 C.2 0 **** 0
23128 C 142.174 179.31 2.6933 C.2 0 **** 0.042
23129 C 144.548 179.07 1.86935 C.3 0 **** 0
23130 C 145.977 179.616 1.91951 C.3 0 **** 0
23131 C 146.228 180.891 2.74865 C.2 0 **** 0
23132 C 145.129 181.657 3.25928 C.2 0 **** 0
23133 C 146.856 179.218 0.714499 C.3 0 **** -0.106
23134 C 146.124 179.414 -0.617173 C.3 0 **** -0.053
23135 C 144.837 178.538 -0.703186 C.3 0 **** -0.053
23136 C 144.288 178.11 0.683218 C.3 0 **** -0.106
23137 C 145.468 182.758 4.07064 C.2 0 **** 0.042
23138 C 146.786 183.076 4.31878 C.2 0 **** 0.052
23139 C 147.822 182.295 3.82898 C.2 0 **** 0.052
23140 C 147.536 181.17 3.10075 C.2 0 **** 0.042
23141 C 149.27 182.612 4.09414 C.2 0 **** 0.367
23142 C 149.544 183.827 4.91702 C.2 0 **** 0
23143 C 148.55 184.578 5.4062 C.2 0 **** 0
23144 C 147.118 184.285 5.1568 C.2 0 **** 0.367
23145 C 148.835 185.813 6.22933 C.3 0 **** -0.106
23146 C 150.114 186.498 5.68472 C.3 0 **** -0.106
23147 C 151.273 185.504 5.60003 C.2 0 **** 0
23148 C 150.993 184.177 5.20419 C.2 0 **** 0.2405
23149 N 151.964 183.247 5.07996 N.2 0 **** -0.481
23150 C 153.224 183.634 5.2498 C.2 0 **** 0.2405
23151 C 153.567 184.939 5.67522 C.2 0 **** 0
23152 C 152.572 185.866 5.85916 C.2 0 **** 0
23153 C 152.885 187.292 6.29404 C.3 0 **** -0.106
23154 C 154.301 187.444 6.86283 C.3 0 **** -0.106
23155 C 155.312 186.728 5.97465 C.3 0 **** -0.106
23156 C 155.019 185.215 5.97212 C.3 0 **** -0.053
23157 C 155.918 184.467 4.95231 C.3 0 **** -0.106
23158 C 155.536 183.012 4.9072 C.2 0 **** 0
23159 C 154.199 182.628 5.03351 C.2 0 **** 0
23160 C 153.862 181.266 4.94101 C.2 0 **** -0.1268
23161 C 154.85 180.332 4.69845 C.2 0 **** -0.1268
23162 C 156.171 180.709 4.52976 C.2 0 **** 0
23163 C 156.507 182.059 4.61763 C.2 0 **** 0
23164 C 138.803 188.278 5.15958 C.3 0 **** -0.106
23165 C 139.035 189.097 3.87269 C.3 0 **** -0.159
23166 C 136.081 187.313 4.87539 C.3 0 **** -0.159
23167 C 141.036 186.405 4.68877 C.3 0 **** -0.159
23168 C 135.577 184.492 4.54499 C.3 0 **** -0.159
23169 C 137.29 179.93 3.352 C.3 0 **** -0.159
23170 C 139.396 178.31 2.27607 C.3 0 **** -0.159
23171 O 142.048 177.966 2.48277 O.3 0 **** -0.452
23172 C 145.03 177.234 -1.4804 C.3 0 **** -0.159
23173 C 147.129 179.151 -1.74545 C.3 0 **** -0.159
23174 O 148.499 180.291 2.6828 O.3 0 **** -0.452
23175 O 144.496 183.518 4.63466 O.3 0 **** -0.452
23176 O 146.263 184.976 5.60846 O.2 0 **** -0.419
23177 O 150.143 181.941 3.62596 O.2 0 **** -0.419
23178 C 157.949 182.484 4.38948 C.3 0 **** -0.159
23179 C 157.194 179.63 4.23509 C.3 0 **** -0.159
23180 H 141.148 184.136 3.39901 H 0 **** 0.053
23181 H 141.125 183.665 5.125 H 0 **** 0.053
23182 H 137.335 182.229 5.08462 H 0 **** 0.053
23183 H 137.007 182.56 3.36153 H 0 **** 0.053
23184 H 142.706 182.873 3.91202 H 0 **** 0.1268
23185 H 147.783 179.793 0.689183 H 0 **** 0.053
23186 H 147.11 178.165 0.857599 H 0 **** 0.053
23187 H 145.82 180.474 -0.680978 H 0 **** 0.053
23188 H 144.069 179.136 -1.21031 H 0 **** 0.053
23189 H 144.78 177.183 0.990627 H 0 **** 0.053
23190 H 143.219 177.893 0.572936 H 0 **** 0.053
23191 H 148.002 186.538 6.21334 H 0 **** 0.053
23192 H 148.973 185.511 7.282 H 0 **** 0.053
23193 H 150.325 187.364 6.33576 H 0 **** 0.053
23194 H 149.891 186.922 4.68239 H 0 **** 0.053
23195 H 152.774 187.972 5.4268 H 0 **** 0.053
23196 H 152.175 187.646 7.06338 H 0 **** 0.053
23197 H 154.344 187.009 7.87931 H 0 **** 0.053
23198 H 154.562 188.514 6.97042 H 0 **** 0.053
23199 H 156.348 186.909 6.31888 H 0 **** 0.053
23200 H 155.246 187.119 4.94325 H 0 **** 0.053
23201 H 155.259 184.826 6.99175 H 0 **** 0.053
23202 H 155.788 184.928 3.94689 H 0 **** 0.053
23203 H 156.981 184.631 5.23608 H 0 **** 0.053
23204 H 152.821 180.936 5.05204 H 0 **** 0.1268
23205 H 154.578 179.267 4.62292 H 0 **** 0.1268
23206 H 139.672 188.406 5.83404 H 0 **** 0.053
23207 H 137.974 188.736 5.72745 H 0 **** 0.053
23208 H 138.165 189.034 3.1994 H 0 **** 0.053
23209 H 139.918 188.736 3.3194 H 0 **** 0.053
23210 H 139.203 190.17 4.09564 H 0 **** 0.053
23211 H 135.191 186.981 4.30601 H 0 **** 0.053
23212 H 136.307 188.317 4.46883 H 0 **** 0.053
23213 H 135.762 187.451 5.93196 H 0 **** 0.053
23214 H 141.54 186.232 3.71121 H 0 **** 0.053
23215 H 141.623 185.857 5.45769 H 0 **** 0.053
23216 H 141.187 187.473 4.90402 H 0 **** 0.053
23217 H 135.492 183.424 4.82635 H 0 **** 0.053
23218 H 135.116 184.595 3.53751 H 0 **** 0.053
23219 H 134.924 185.023 5.26376 H 0 **** 0.053
23220 H 137.223 178.85 3.56976 H 0 **** 0.053
23221 H 136.774 180.113 2.38152 H 0 **** 0.053
23222 H 136.664 180.404 4.14241 H 0 **** 0.053
23223 H 139.99 178.091 1.36159 H 0 **** 0.053
23224 H 138.337 178.242 1.90418 H 0 **** 0.053
23225 H 139.534 177.445 2.97652 H 0 **** 0.053
23226 H 142.916 177.554 2.51978 H 0 **** 0.41
23227 H 145.278 177.422 -2.53355 H 0 **** 0.053
23228 H 144.1 176.634 -1.46404 H 0 **** 0.053
23229 H 145.83 176.613 -1.03283 H 0 **** 0.053
23230 H 147.984 179.85 -1.6783 H 0 **** 0.053
23231 H 146.666 179.288 -2.73432 H 0 **** 0.053
23232 H 147.545 178.125 -1.68897 H 0 **** 0.053
23233 H 149.366 180.679 2.87282 H 0 **** 0.41
23234 H 144.892 184.256 5.12268 H 0 **** 0.41
23235 H 158.017 183.31 3.65683 H 0 **** 0.053
23236 H 158.59 181.677 3.98556 H 0 **** 0.053
23237 H 158.43 182.825 5.3293 H 0 **** 0.053
23238 H 157.66 179.765 3.24184 H 0 **** 0.053
23239 H 156.746 178.621 4.23493 H 0 **** 0.053
23240 H 158.003 179.614 4.98603 H 0 **** 0.053
23241 C 104.989 141.054 59.2675 C.2 0 **** 0
23242 C 104.437 141.266 58.0138 C.2 0 **** 0
23243 C 103.863 142.49 57.7084 C.2 0 **** 0
23244 C 103.861 143.485 58.6539 C.2 0 **** 0
23245 C 104.462 143.298 59.8929 C.2 0 **** 0
23246 C 105.036 142.08 60.1945 C.2 0 **** 0
23247 C 103.22 144.826 58.3575 C.3 0 **** -0.106
23248 C 102.434 144.99 57.0638 C.2 0 **** 0
23249 C 102.429 144.003 56.1179 C.2 0 **** 0
23250 C 103.235 142.725 56.3369 C.3 0 **** -0.106
23251 C 101.676 144.17 54.9512 C.2 0 **** 0
23252 C 100.877 145.282 54.7684 C.2 0 **** 0
23253 C 100.962 146.328 55.6799 C.2 0 **** 0
23254 C 101.725 146.184 56.8449 C.2 0 **** 0
23255 C 101.764 147.205 57.7825 C.2 0 **** -0.1268
23256 C 100.985 148.342 57.7278 C.2 0 **** 0
23257 C 100.102 148.387 56.5914 C.2 0 **** 0
23258 C 100.273 147.525 55.5056 C.2 0 **** 0.042
23259 C 99.1087 149.557 56.4455 C.3 0 **** 0
23260 C 99.1305 150.666 57.501 C.3 0 **** 0
23261 C 100.262 150.636 58.5476 C.2 0 **** 0
23262 C 101.12 149.493 58.662 C.2 0 **** 0
23263 C 97.7562 151.312 57.7763 C.3 0 **** -0.106
23264 C 96.6535 150.263 57.9476 C.3 0 **** -0.053
23265 C 96.4807 149.392 56.6658 C.3 0 **** -0.053
23266 C 97.7355 149.381 55.7538 C.3 0 **** -0.106
23267 C 102.172 149.602 59.5943 C.2 0 **** 0.042
23268 C 102.326 150.738 60.3597 C.2 0 **** 0.052
23269 C 101.492 151.834 60.2 C.2 0 **** 0.052
23270 C 100.505 151.803 59.2508 C.2 0 **** 0.042
23271 C 101.645 153.092 61.0138 C.2 0 **** 0.367
23272 C 102.75 153.103 62.0174 C.2 0 **** 0
23273 C 103.569 152.055 62.1666 C.2 0 **** 0
23274 C 103.436 150.807 61.3778 C.2 0 **** 0.367
23275 C 104.679 152.07 63.193 C.3 0 **** -0.106
23276 C 104.199 152.85 64.4429 C.3 0 **** -0.106
23277 C 103.668 154.231 64.0564 C.2 0 **** 0
23278 C 102.934 154.356 62.855 C.2 0 **** 0.2405
23279 N 102.409 155.535 62.4568 N.2 0 **** -0.481
23280 C 102.518 156.576 63.2768 C.2 0 **** 0.2405
23281 C 103.265 156.521 64.4767 C.2 0 **** 0
23282 C 103.848 155.336 64.8496 C.2 0 **** 0
23283 C 104.645 155.215 66.1429 C.3 0 **** -0.106
23284 C 105.039 156.576 66.7296 C.3 0 **** -0.106
23285 C 103.851 157.532 66.7064 C.3 0 **** -0.106
23286 C 103.435 157.806 65.2487 C.3 0 **** -0.053
23287 C 102.129 158.64 65.1811 C.3 0 **** -0.106
23288 C 101.701 158.803 63.7467 C.2 0 **** 0
23289 C 101.883 157.763 62.8329 C.2 0 **** 0
23290 C 101.433 157.921 61.5099 C.2 0 **** -0.1268
23291 C 100.793 159.089 61.1409 C.2 0 **** -0.1268
23292 C 100.571 160.107 62.0518 C.2 0 **** 0
23293 C 101.014 159.95 63.365 C.2 0 **** 0
23294 C 105.737 141.876 61.5133 C.3 0 **** -0.106
23295 C 104.736 141.485 62.6205 C.3 0 **** -0.159
23296 C 105.541 139.695 59.6101 C.3 0 **** -0.159
23297 C 104.435 144.448 60.8729 C.3 0 **** -0.159
23298 C 104.453 140.166 56.9807 C.3 0 **** -0.159
23299 C 101.732 143.053 53.909 C.3 0 **** -0.159
23300 C 99.9491 145.273 53.5766 C.3 0 **** -0.159
23301 O 99.6852 147.838 54.3127 O.3 0 **** -0.452
23302 C 95.3309 149.844 55.7632 C.3 0 **** -0.159
23303 C 95.3755 150.993 58.3766 C.3 0 **** -0.159
23304 O 99.7185 152.885 58.9599 O.3 0 **** -0.452
23305 O 103.061 148.588 59.7433 O.3 0 **** -0.452
23306 O 104.183 149.897 61.5383 O.2 0 **** -0.419
23307 O 100.886 154.008 60.8806 O.2 0 **** -0.419
23308 C 100.734 161.046 64.3805 C.3 0 **** -0.159
23309 C 99.8341 161.345 61.5807 C.3 0 **** -0.159
23310 H 102.523 145.049 59.1984 H 0 **** 0.053
23311 H 104.016 145.61 58.3875 H 0 **** 0.053
23312 H 104.052 142.69 55.5757 H 0 **** 0.053
23313 H 102.566 141.863 56.1185 H 0 **** 0.053
23314 H 102.423 147.029 58.6031 H 0 **** 0.1268
23315 H 97.7813 151.938 58.6699 H 0 **** 0.053
23316 H 97.5431 151.951 56.9165 H 0 **** 0.053
23317 H 96.9511 149.594 58.7755 H 0 **** 0.053
23318 H 96.2829 148.363 56.9938 H 0 **** 0.053
23319 H 97.6838 150.23 55.066 H 0 **** 0.053
23320 H 97.708 148.467 55.1488 H 0 **** 0.053
23321 H 104.991 151.055 63.4982 H 0 **** 0.053
23322 H 105.565 152.555 62.7479 H 0 **** 0.053
23323 H 105.046 152.888 65.1502 H 0 **** 0.053
23324 H 103.409 152.257 64.9505 H 0 **** 0.053
23325 H 104.044 154.665 66.8922 H 0 **** 0.053
23326 H 105.572 154.632 65.9946 H 0 **** 0.053
23327 H 105.864 157.013 66.136 H 0 **** 0.053
23328 H 105.427 156.455 67.7586 H 0 **** 0.053
23329 H 104.094 158.485 67.2137 H 0 **** 0.053
23330 H 103.003 157.085 67.256 H 0 **** 0.053
23331 H 104.251 158.405 64.7748 H 0 **** 0.053
23332 H 101.334 158.116 65.76 H 0 **** 0.053
23333 H 102.305 159.609 65.6974 H 0 **** 0.053
23334 H 101.577 157.126 60.7678 H 0 **** 0.1268
23335 H 100.439 159.204 60.1038 H 0 **** 0.1268
23336 H 106.297 142.777 61.8321 H 0 **** 0.053
23337 H 106.521 141.1 61.4539 H 0 **** 0.053
23338 H 104.196 140.56 62.3587 H 0 **** 0.053
23339 H 103.988 142.278 62.7848 H 0 **** 0.053
23340 H 105.245 141.308 63.5888 H 0 **** 0.053
23341 H 105.022 138.873 59.0796 H 0 **** 0.053
23342 H 105.427 139.443 60.6816 H 0 **** 0.053
23343 H 106.623 139.61 59.3665 H 0 **** 0.053
23344 H 103.393 144.73 61.1434 H 0 **** 0.053
23345 H 104.92 145.357 60.457 H 0 **** 0.053
23346 H 104.938 144.255 61.8321 H 0 **** 0.053
23347 H 104.41 140.538 55.9384 H 0 **** 0.053
23348 H 103.593 139.472 57.1086 H 0 **** 0.053
23349 H 105.377 139.559 57.0235 H 0 **** 0.053
23350 H 101.623 143.43 52.8769 H 0 **** 0.053
23351 H 100.938 142.29 54.0752 H 0 **** 0.053
23352 H 102.704 142.509 53.8968 H 0 **** 0.053
23353 H 98.9402 145.668 53.8287 H 0 **** 0.053
23354 H 99.7184 144.252 53.1661 H 0 **** 0.053
23355 H 100.334 145.874 52.7119 H 0 **** 0.053
23356 H 99.4928 148.779 54.287 H 0 **** 0.41
23357 H 94.3588 149.749 56.265 H 0 **** 0.053
23358 H 95.2904 149.223 54.8481 H 0 **** 0.053
23359 H 95.4619 150.896 55.4404 H 0 **** 0.053
23360 H 95.535 151.532 59.3297 H 0 **** 0.053
23361 H 94.5437 150.289 58.5296 H 0 **** 0.053
23362 H 95.067 151.748 57.6264 H 0 **** 0.053
23363 H 99.9011 153.576 59.6142 H 0 **** 0.41
23364 H 103.689 148.799 60.4507 H 0 **** 0.41
23365 H 100.28 160.637 65.3025 H 0 **** 0.053
23366 H 100.026 161.815 64.019 H 0 **** 0.053
23367 H 101.66 161.584 64.6698 H 0 **** 0.053
23368 H 98.874 161.479 62.1117 H 0 **** 0.053
23369 H 99.5914 161.3 60.5044 H 0 **** 0.053
23370 H 100.432 162.261 61.73 H 0 **** 0.053
23371 C 109.291 157.304 72.5234 C.2 0 **** 0
23372 C 109.476 155.93 72.543 C.2 0 **** 0
23373 C 110.059 155.294 71.4586 C.2 0 **** 0
23374 C 110.461 156.042 70.3794 C.2 0 **** 0
23375 C 110.33 157.425 70.3763 C.2 0 **** 0
23376 C 109.751 158.057 71.4577 C.2 0 **** 0
23377 C 111.082 155.372 69.1695 C.3 0 **** -0.106
23378 C 111.096 153.851 69.1023 C.2 0 **** 0
23379 C 110.695 153.1 70.1721 C.2 0 **** 0
23380 C 110.248 153.78 71.4645 C.3 0 **** -0.106
23381 C 110.693 151.705 70.0727 C.2 0 **** 0
23382 C 111.016 151.072 68.8889 C.2 0 **** 0
23383 C 111.52 151.829 67.837 C.2 0 **** 0
23384 C 111.546 153.226 67.9269 C.2 0 **** 0
23385 C 111.995 153.984 66.8564 C.2 0 **** -0.1268
23386 C 112.309 153.469 65.6158 C.2 0 **** 0
23387 C 112.126 152.044 65.5141 C.2 0 **** 0
23388 C 111.97 151.251 66.6535 C.2 0 **** 0.042
23389 C 112.355 151.343 64.1607 C.3 0 **** 0
23390 C 112.816 152.188 62.9715 C.3 0 **** 0
23391 C 113.199 153.656 63.2429 C.2 0 **** 0
23392 C 112.914 154.261 64.5111 C.2 0 **** 0
23393 C 112.302 151.699 61.6012 C.3 0 **** -0.106
23394 C 110.805 151.373 61.6343 C.3 0 **** -0.053
23395 C 110.483 150.24 62.6554 C.3 0 **** -0.053
23396 C 111.565 150.075 63.7551 C.3 0 **** -0.106
23397 C 113.376 155.581 64.6829 C.2 0 **** 0.042
23398 C 114.033 156.239 63.665 C.2 0 **** 0.052
23399 C 114.319 155.608 62.4628 C.2 0 **** 0.052
23400 C 113.954 154.301 62.2803 C.2 0 **** 0.042
23401 C 115.045 156.298 61.3371 C.2 0 **** 0.367
23402 C 115.432 157.72 61.574 C.2 0 **** 0
23403 C 115.159 158.33 62.7314 C.2 0 **** 0
23404 C 114.464 157.67 63.8565 C.2 0 **** 0.367
23405 C 115.511 159.774 62.9426 C.3 0 **** -0.106
23406 C 115.402 160.561 61.6294 C.3 0 **** -0.106
23407 C 116.175 159.86 60.5065 C.2 0 **** 0
23408 C 116.175 158.447 60.467 C.2 0 **** 0.2405
23409 N 116.796 157.759 59.4836 N.2 0 **** -0.481
23410 C 117.344 158.449 58.4888 C.2 0 **** 0.2405
23411 C 117.409 159.862 58.4901 C.2 0 **** 0
23412 C 116.83 160.558 59.5211 C.2 0 **** 0
23413 C 116.854 162.081 59.5634 C.3 0 **** -0.106
23414 C 117.875 162.692 58.5952 C.3 0 **** -0.106
23415 C 117.794 162.011 57.2346 C.3 0 **** -0.106
23416 C 118.176 160.524 57.3733 C.3 0 **** -0.053
23417 C 117.942 159.757 56.0449 C.3 0 **** -0.106
23418 C 118.233 158.293 56.2449 C.2 0 **** 0
23419 C 117.908 157.667 57.4496 C.2 0 **** 0
23420 C 118.142 156.287 57.5941 C.2 0 **** -0.1268
23421 C 118.662 155.567 56.5361 C.2 0 **** -0.1268
23422 C 118.95 156.173 55.326 C.2 0 **** 0
23423 C 118.714 157.54 55.1788 C.2 0 **** 0
23424 C 109.647 159.56 71.4928 C.3 0 **** -0.106
23425 C 108.386 160.048 70.7494 C.3 0 **** -0.159
23426 C 108.586 157.97 73.6767 C.3 0 **** -0.159
23427 C 110.814 158.178 69.1586 C.3 0 **** -0.159
23428 C 109.036 155.122 73.739 C.3 0 **** -0.159
23429 C 110.27 150.91 71.3079 C.3 0 **** -0.159
23430 C 110.786 149.581 68.8215 C.3 0 **** -0.159
23431 O 112.183 149.905 66.5554 O.3 0 **** -0.452
23432 C 110.343 148.856 62.0175 C.3 0 **** -0.159
23433 C 110.363 151.058 60.2004 C.3 0 **** -0.159
23434 O 114.294 153.585 61.165 O.3 0 **** -0.452
23435 O 113.186 156.226 65.8614 O.3 0 **** -0.452
23436 O 114.258 158.244 64.8788 O.2 0 **** -0.419
23437 O 115.245 155.739 60.297 O.2 0 **** -0.419
23438 C 118.982 158.202 53.8371 C.3 0 **** -0.159
23439 C 119.489 155.313 54.2011 C.3 0 **** -0.159
23440 H 110.53 155.738 68.273 H 0 **** 0.053
23441 H 112.133 155.738 69.0667 H 0 **** 0.053
23442 H 110.985 153.529 72.2655 H 0 **** 0.053
23443 H 109.283 153.319 71.7714 H 0 **** 0.053
23444 H 112.04 155.033 67.0434 H 0 **** 0.1268
23445 H 112.479 152.44 60.8197 H 0 **** 0.053
23446 H 112.881 150.804 61.3611 H 0 **** 0.053
23447 H 110.27 152.284 61.957 H 0 **** 0.053
23448 H 109.533 150.498 63.1411 H 0 **** 0.053
23449 H 112.341 149.395 63.3927 H 0 **** 0.053
23450 H 111.095 149.602 64.626 H 0 **** 0.053
23451 H 114.941 160.263 63.7436 H 0 **** 0.053
23452 H 116.554 159.795 63.246 H 0 **** 0.053
23453 H 115.777 161.581 61.837 H 0 **** 0.053
23454 H 114.332 160.67 61.3663 H 0 **** 0.053
23455 H 115.848 162.468 59.3095 H 0 **** 0.053
23456 H 117.085 162.453 60.5783 H 0 **** 0.053
23457 H 118.898 162.568 58.9918 H 0 **** 0.053
23458 H 117.714 163.782 58.5012 H 0 **** 0.053
23459 H 118.459 162.503 56.4992 H 0 **** 0.053
23460 H 116.765 162.094 56.8387 H 0 **** 0.053
23461 H 119.267 160.477 57.6076 H 0 **** 0.053
23462 H 116.885 159.899 55.7246 H 0 **** 0.053
23463 H 118.572 160.224 55.2565 H 0 **** 0.053
23464 H 117.904 155.776 58.5355 H 0 **** 0.1268
23465 H 118.824 154.484 56.6525 H 0 **** 0.1268
23466 H 110.539 160.05 71.0558 H 0 **** 0.053
23467 H 109.625 159.952 72.5251 H 0 **** 0.053
23468 H 107.473 159.619 71.194 H 0 **** 0.053
23469 H 108.411 159.763 69.685 H 0 **** 0.053
23470 H 108.287 161.151 70.7926 H 0 **** 0.053
23471 H 107.842 157.312 74.1658 H 0 **** 0.053
23472 H 108.002 158.859 73.368 H 0 **** 0.053
23473 H 109.296 158.303 74.4653 H 0 **** 0.053
23474 H 110.258 157.875 68.2426 H 0 **** 0.053
23475 H 111.892 157.995 68.9601 H 0 **** 0.053
23476 H 110.703 159.271 69.2124 H 0 **** 0.053
23477 H 109.593 154.173 73.8607 H 0 **** 0.053
23478 H 107.958 154.854 73.6796 H 0 **** 0.053
23479 H 109.191 155.661 74.6933 H 0 **** 0.053
23480 H 110.786 149.936 71.3827 H 0 **** 0.053
23481 H 109.173 150.713 71.3206 H 0 **** 0.053
23482 H 110.515 151.42 72.2671 H 0 **** 0.053
23483 H 110.337 149.27 67.8518 H 0 **** 0.053
23484 H 110.05 149.183 69.5726 H 0 **** 0.053
23485 H 111.723 148.982 68.9603 H 0 **** 0.053
23486 H 112.731 149.724 65.7874 H 0 **** 0.41
23487 H 109.497 148.814 61.3192 H 0 **** 0.053
23488 H 110.167 148.088 62.7944 H 0 **** 0.053
23489 H 111.265 148.568 61.4744 H 0 **** 0.053
23490 H 110.546 151.924 59.5363 H 0 **** 0.053
23491 H 109.288 150.827 60.1535 H 0 **** 0.053
23492 H 110.928 150.202 59.7791 H 0 **** 0.053
23493 H 114.697 154.194 60.5276 H 0 **** 0.41
23494 H 113.52 157.134 65.7987 H 0 **** 0.41
23495 H 118.116 158.803 53.4999 H 0 **** 0.053
23496 H 119.178 157.484 53.018 H 0 **** 0.053
23497 H 119.863 158.876 53.8808 H 0 **** 0.053
23498 H 118.8 155.288 53.3366 H 0 **** 0.053
23499 H 119.635 154.263 54.5111 H 0 **** 0.053
23500 H 120.467 155.673 53.8375 H 0 **** 0.053
23501 C 143.048 96.2814 40.2913 C.2 0 **** 0
23502 C 143.877 97.0671 39.5065 C.2 0 **** 0
23503 C 143.986 98.4255 39.7582 C.2 0 **** 0
23504 C 143.275 98.9736 40.7976 C.2 0 **** 0
23505 C 142.486 98.1819 41.6232 C.2 0 **** 0
23506 C 142.381 96.8293 41.3729 C.2 0 **** 0
23507 C 143.355 100.46 41.0825 C.3 0 **** -0.106
23508 C 144.099 101.354 40.0998 C.2 0 **** 0
23509 C 144.808 100.816 39.062 C.2 0 **** 0
23510 C 144.882 99.3008 38.8862 C.3 0 **** -0.106
23511 C 145.459 101.663 38.1588 C.2 0 **** 0
23512 C 145.337 103.035 38.251 C.2 0 **** 0
23513 C 144.704 103.582 39.3617 C.2 0 **** 0
23514 C 144.063 102.747 40.2854 C.2 0 **** 0
23515 C 143.381 103.294 41.3624 C.2 0 **** -0.1268
23516 C 143.163 104.644 41.5407 C.2 0 **** 0
23517 C 143.709 105.465 40.4917 C.2 0 **** 0
23518 C 144.639 104.954 39.582 C.2 0 **** 0.042
23519 C 143.467 106.987 40.5125 C.3 0 **** 0
23520 C 142.686 107.584 41.6859 C.3 0 **** 0
23521 C 142.341 106.652 42.8649 C.2 0 **** 0
23522 C 142.546 105.237 42.7599 C.2 0 **** 0
23523 C 141.836 108.821 41.3242 C.3 0 **** -0.106
23524 C 141.03 108.606 40.0388 C.3 0 **** -0.053
23525 C 141.957 108.337 38.8147 C.3 0 **** -0.053
23526 C 143.364 107.816 39.2091 C.3 0 **** -0.106
23527 C 142.275 104.486 43.9214 C.2 0 **** 0.042
23528 C 141.811 105.096 45.0678 C.2 0 **** 0.052
23529 C 141.651 106.472 45.1383 C.2 0 **** 0.052
23530 C 141.978 107.249 44.0588 C.2 0 **** 0.042
23531 C 141.158 107.167 46.3808 C.2 0 **** 0.367
23532 C 140.842 106.292 47.5481 C.2 0 **** 0
23533 C 141.009 104.965 47.4929 C.2 0 **** 0
23534 C 141.491 104.261 46.2809 C.2 0 **** 0.367
23535 C 140.676 104.085 48.6761 C.3 0 **** -0.106
23536 C 139.443 104.672 49.4088 C.3 0 **** -0.106
23537 C 139.658 106.147 49.7496 C.2 0 **** 0
23538 C 140.343 106.959 48.8174 C.2 0 **** 0.2405
23539 N 140.553 108.275 49.0333 N.2 0 **** -0.481
23540 C 140.009 108.825 50.1139 C.2 0 **** 0.2405
23541 C 139.339 108.062 51.0982 C.2 0 **** 0
23542 C 139.182 106.712 50.9061 C.2 0 **** 0
23543 C 138.449 105.845 51.9223 C.3 0 **** -0.106
23544 C 138.284 106.532 53.2832 C.3 0 **** -0.106
23545 C 137.816 107.972 53.1001 C.3 0 **** -0.106
23546 C 138.895 108.776 52.3503 C.3 0 **** -0.053
23547 C 138.394 110.201 51.9951 C.3 0 **** -0.106
23548 C 139.436 110.919 51.1795 C.2 0 **** 0
23549 C 140.203 110.224 50.2435 C.2 0 **** 0
23550 C 141.139 110.925 49.4615 C.2 0 **** -0.1268
23551 C 141.264 112.293 49.6087 C.2 0 **** -0.1268
23552 C 140.476 112.996 50.5037 C.2 0 **** 0
23553 C 139.546 112.303 51.2783 C.2 0 **** 0
23554 C 141.569 95.9481 42.2882 C.3 0 **** -0.106
23555 C 140.077 95.9629 41.8943 C.3 0 **** -0.159
23556 C 142.881 94.822 39.956 C.3 0 **** -0.159
23557 C 141.749 98.8569 42.7576 C.3 0 **** -0.159
23558 C 144.659 96.4509 38.3716 C.3 0 **** -0.159
23559 C 146.266 101.011 37.0352 C.3 0 **** -0.159
23560 C 145.901 103.854 37.115 C.3 0 **** -0.159
23561 O 145.408 105.826 38.8635 O.3 0 **** -0.452
23562 C 142.214 109.573 37.9507 C.3 0 **** -0.159
23563 C 140.105 109.816 39.8598 C.3 0 **** -0.159
23564 O 141.956 108.617 44.0937 O.3 0 **** -0.452
23565 O 142.48 103.145 43.9335 O.3 0 **** -0.452
23566 O 141.627 103.079 46.2711 O.2 0 **** -0.419
23567 O 140.994 108.351 46.4002 O.2 0 **** -0.419
23568 C 138.649 113.074 52.2316 C.3 0 **** -0.159
23569 C 140.649 114.499 50.5865 C.3 0 **** -0.159
23570 H 142.308 100.838 41.1467 H 0 **** 0.053
23571 H 143.806 100.599 42.0953 H 0 **** 0.053
23572 H 145.939 98.9803 39.0501 H 0 **** 0.053
23573 H 144.647 99.0732 37.823 H 0 **** 0.053
23574 H 142.981 102.578 42.0444 H 0 **** 0.1268
23575 H 141.144 109.079 42.1282 H 0 **** 0.053
23576 H 142.539 109.647 41.1991 H 0 **** 0.053
23577 H 140.393 107.716 40.1859 H 0 **** 0.053
23578 H 141.467 107.574 38.1954 H 0 **** 0.053
23579 H 144.022 108.67 39.3952 H 0 **** 0.053
23580 H 143.775 107.266 38.3537 H 0 **** 0.053
23581 H 140.461 103.041 48.384 H 0 **** 0.053
23582 H 141.55 104.053 49.3487 H 0 **** 0.053
23583 H 139.257 104.04 50.294 H 0 **** 0.053
23584 H 138.551 104.551 48.758 H 0 **** 0.053
23585 H 137.447 105.588 51.5281 H 0 **** 0.053
23586 H 138.975 104.888 52.0919 H 0 **** 0.053
23587 H 139.251 106.535 53.8208 H 0 **** 0.053
23588 H 137.576 105.967 53.9183 H 0 **** 0.053
23589 H 137.6 108.451 54.0741 H 0 **** 0.053
23590 H 136.875 107.988 52.521 H 0 **** 0.053
23591 H 139.772 108.881 53.0355 H 0 **** 0.053
23592 H 137.446 110.118 51.4164 H 0 **** 0.053
23593 H 138.14 110.728 52.9404 H 0 **** 0.053
23594 H 141.765 110.401 48.7295 H 0 **** 0.1268
23595 H 141.995 112.837 48.9894 H 0 **** 0.1268
23596 H 141.668 96.2452 43.3507 H 0 **** 0.053
23597 H 141.926 94.9028 42.2857 H 0 **** 0.053
23598 H 139.937 95.6206 40.8554 H 0 **** 0.053
23599 H 139.648 96.9752 41.9767 H 0 **** 0.053
23600 H 139.475 95.2966 42.5448 H 0 **** 0.053
23601 H 142.993 94.6128 38.8741 H 0 **** 0.053
23602 H 141.874 94.4368 40.2051 H 0 **** 0.053
23603 H 143.618 94.1842 40.492 H 0 **** 0.053
23604 H 141.029 99.6181 42.3811 H 0 **** 0.053
23605 H 142.444 99.3806 43.4488 H 0 **** 0.053
23606 H 141.151 98.1844 43.3905 H 0 **** 0.053
23607 H 145.576 97.0133 38.1084 H 0 **** 0.053
23608 H 144.049 96.3816 37.4437 H 0 **** 0.053
23609 H 145.016 95.4307 38.6095 H 0 **** 0.053
23610 H 147.138 101.617 36.7352 H 0 **** 0.053
23611 H 145.647 100.84 36.1251 H 0 **** 0.053
23612 H 146.701 100.025 37.3178 H 0 **** 0.053
23613 H 145.225 104.687 36.8221 H 0 **** 0.053
23614 H 146.038 103.294 36.1499 H 0 **** 0.053
23615 H 146.898 104.306 37.3534 H 0 **** 0.053
23616 H 145.439 106.674 39.3154 H 0 **** 0.41
23617 H 141.289 109.946 37.4896 H 0 **** 0.053
23618 H 142.916 109.333 37.1305 H 0 **** 0.053
23619 H 142.668 110.391 38.5434 H 0 **** 0.053
23620 H 139.419 109.913 40.7225 H 0 **** 0.053
23621 H 139.486 109.716 38.9555 H 0 **** 0.053
23622 H 140.679 110.761 39.7942 H 0 **** 0.053
23623 H 141.55 108.893 44.9296 H 0 **** 0.41
23624 H 142.203 102.775 44.7846 H 0 **** 0.41
23625 H 137.585 112.801 52.0972 H 0 **** 0.053
23626 H 138.691 114.171 52.0917 H 0 **** 0.053
23627 H 138.916 112.884 53.2918 H 0 **** 0.053
23628 H 139.73 115.037 50.2887 H 0 **** 0.053
23629 H 141.452 114.863 49.9217 H 0 **** 0.053
23630 H 140.914 114.828 51.6068 H 0 **** 0.053
23631 C 137.639 191.926 19.5948 C.2 0 **** 0
23632 C 137.417 190.868 20.4632 C.2 0 **** 0
23633 C 138.301 189.803 20.497 C.2 0 **** 0
23634 C 139.401 189.817 19.6746 C.2 0 **** 0
23635 C 139.659 190.899 18.842 C.2 0 **** 0
23636 C 138.778 191.961 18.8114 C.2 0 **** 0
23637 C 140.374 188.655 19.6724 C.3 0 **** -0.106
23638 C 140.023 187.406 20.4688 C.2 0 **** 0
23639 C 138.93 187.384 21.289 C.2 0 **** 0
23640 C 138.053 188.625 21.4363 C.3 0 **** -0.106
23641 C 138.617 186.213 21.9879 C.2 0 **** 0
23642 C 139.347 185.056 21.8084 C.2 0 **** 0
23643 C 140.515 185.107 21.056 C.2 0 **** 0
23644 C 140.853 186.276 20.364 C.2 0 **** 0
23645 C 141.988 186.311 19.5674 C.2 0 **** -0.1268
23646 C 142.772 185.213 19.283 C.2 0 **** 0
23647 C 142.309 183.993 19.8929 C.2 0 **** 0
23648 C 141.363 184.012 20.9208 C.2 0 **** 0.042
23649 C 143.038 182.668 19.5934 C.3 0 **** 0
23650 C 144.27 182.704 18.6857 C.3 0 **** 0
23651 C 144.813 184.086 18.2697 C.2 0 **** 0
23652 C 144.059 185.276 18.5361 C.2 0 **** 0
23653 C 144.468 181.437 17.8271 C.3 0 **** -0.106
23654 C 143.166 180.994 17.1515 C.3 0 **** -0.053
23655 C 142.062 180.649 18.1963 C.3 0 **** -0.053
23656 C 142.292 181.312 19.5796 C.3 0 **** -0.106
23657 C 144.681 186.492 18.1875 C.2 0 **** 0.042
23658 C 145.928 186.507 17.5997 C.2 0 **** 0.052
23659 C 146.638 185.335 17.3834 C.2 0 **** 0.052
23660 C 146.105 184.136 17.7775 C.2 0 **** 0.042
23661 C 148.006 185.323 16.7538 C.2 0 **** 0.367
23662 C 148.569 186.649 16.3642 C.2 0 **** 0
23663 C 147.898 187.785 16.5839 C.2 0 **** 0
23664 C 146.55 187.821 17.2005 C.2 0 **** 0.367
23665 C 148.47 189.123 16.1758 C.3 0 **** -0.106
23666 C 149.27 188.95 14.8604 C.3 0 **** -0.106
23667 C 150.3 187.827 14.9894 C.2 0 **** 0
23668 C 149.947 186.674 15.7268 C.2 0 **** 0.2405
23669 N 150.79 185.628 15.8645 N.2 0 **** -0.481
23670 C 151.944 185.664 15.2053 C.2 0 **** 0.2405
23671 C 152.366 186.8 14.4767 C.2 0 **** 0
23672 C 151.532 187.886 14.3873 C.2 0 **** 0
23673 C 151.925 189.128 13.5967 C.3 0 **** -0.106
23674 C 153.425 189.182 13.2812 C.3 0 **** -0.106
23675 C 153.915 187.828 12.7792 C.3 0 **** -0.106
23676 C 153.756 186.775 13.8923 C.3 0 **** -0.053
23677 C 154.085 185.35 13.3735 C.3 0 **** -0.106
23678 C 153.824 184.339 14.4584 C.2 0 **** 0
23679 C 152.75 184.505 15.3343 C.2 0 **** 0
23680 C 152.498 183.523 16.3096 C.2 0 **** -0.1268
23681 C 153.298 182.398 16.369 C.2 0 **** -0.1268
23682 C 154.339 182.207 15.4772 C.2 0 **** 0
23683 C 154.588 183.177 14.5071 C.2 0 **** 0
23684 C 139.07 193.165 17.9531 C.3 0 **** -0.106
23685 C 138.588 192.944 16.5037 C.3 0 **** -0.159
23686 C 136.627 193.04 19.5147 C.3 0 **** -0.159
23687 C 140.899 190.848 17.9803 C.3 0 **** -0.159
23688 C 136.209 190.869 21.3679 C.3 0 **** -0.159
23689 C 137.404 186.25 22.9185 C.3 0 **** -0.159
23690 C 138.809 183.797 22.446 C.3 0 **** -0.159
23691 O 141.235 182.911 21.7205 O.3 0 **** -0.452
23692 C 141.931 179.152 18.4844 C.3 0 **** -0.159
23693 C 143.502 179.838 16.2017 C.3 0 **** -0.159
23694 O 146.792 182.955 17.6994 O.3 0 **** -0.452
23695 O 144.064 187.673 18.4392 O.3 0 **** -0.452
23696 O 145.983 188.851 17.3784 O.2 0 **** -0.419
23697 O 148.578 184.293 16.5433 O.2 0 **** -0.419
23698 C 155.701 182.952 13.4974 C.3 0 **** -0.159
23699 C 155.153 180.933 15.5851 C.3 0 **** -0.159
23700 H 140.51 188.343 18.6109 H 0 **** 0.053
23701 H 141.367 189.029 20.0239 H 0 **** 0.053
23702 H 138.146 188.998 22.485 H 0 **** 0.053
23703 H 136.995 188.308 21.3089 H 0 **** 0.053
23704 H 142.197 187.263 19.1338 H 0 **** 0.1268
23705 H 145.224 181.591 17.0556 H 0 **** 0.053
23706 H 144.826 180.661 18.5076 H 0 **** 0.053
23707 H 142.802 181.837 16.5371 H 0 **** 0.053
23708 H 141.107 181.011 17.7939 H 0 **** 0.053
23709 H 142.931 180.662 20.1847 H 0 **** 0.053
23710 H 141.323 181.385 20.0873 H 0 **** 0.053
23711 H 147.691 189.893 16.0272 H 0 **** 0.053
23712 H 149.126 189.487 16.9857 H 0 **** 0.053
23713 H 149.717 189.929 14.6176 H 0 **** 0.053
23714 H 148.557 188.731 14.037 H 0 **** 0.053
23715 H 151.36 189.15 12.6454 H 0 **** 0.053
23716 H 151.664 190.054 14.1404 H 0 **** 0.053
23717 H 153.99 189.452 14.1943 H 0 **** 0.053
23718 H 153.636 189.975 12.54 H 0 **** 0.053
23719 H 154.972 187.878 12.4574 H 0 **** 0.053
23720 H 153.326 187.523 11.8947 H 0 **** 0.053
23721 H 154.49 187.025 14.6975 H 0 **** 0.053
23722 H 153.449 185.131 12.4859 H 0 **** 0.053
23723 H 155.137 185.343 13.0137 H 0 **** 0.053
23724 H 151.67 183.635 17.0203 H 0 **** 0.1268
23725 H 153.093 181.631 17.133 H 0 **** 0.1268
23726 H 140.148 193.419 17.9425 H 0 **** 0.053
23727 H 138.598 194.082 18.3479 H 0 **** 0.053
23728 H 137.505 192.74 16.4727 H 0 **** 0.053
23729 H 139.106 192.093 16.0323 H 0 **** 0.053
23730 H 138.774 193.835 15.8706 H 0 **** 0.053
23731 H 135.596 192.701 19.7341 H 0 **** 0.053
23732 H 136.559 193.486 18.5043 H 0 **** 0.053
23733 H 136.859 193.865 20.2229 H 0 **** 0.053
23734 H 140.869 189.991 17.2701 H 0 **** 0.053
23735 H 141.822 190.731 18.5893 H 0 **** 0.053
23736 H 141.067 191.735 17.352 H 0 **** 0.053
23737 H 136.341 190.26 22.2832 H 0 **** 0.053
23738 H 135.307 190.474 20.8487 H 0 **** 0.053
23739 H 135.959 191.881 21.7392 H 0 **** 0.053
23740 H 137.522 185.589 23.7948 H 0 **** 0.053
23741 H 136.468 185.951 22.3936 H 0 **** 0.053
23742 H 137.218 187.255 23.3615 H 0 **** 0.053
23743 H 138.891 182.918 21.7693 H 0 **** 0.053
23744 H 137.711 183.822 22.6857 H 0 **** 0.053
23745 H 139.328 183.529 23.4028 H 0 **** 0.053
23746 H 142.038 182.386 21.6731 H 0 **** 0.41
23747 H 141.619 178.592 17.5928 H 0 **** 0.053
23748 H 141.17 178.974 19.2679 H 0 **** 0.053
23749 H 142.886 178.728 18.8517 H 0 **** 0.053
23750 H 144.233 180.161 15.4365 H 0 **** 0.053
23751 H 142.607 179.48 15.6723 H 0 **** 0.053
23752 H 143.958 178.985 16.7433 H 0 **** 0.053
23753 H 147.615 183.115 17.2138 H 0 **** 0.41
23754 H 144.601 188.407 18.1034 H 0 **** 0.41
23755 H 155.348 183.114 12.462 H 0 **** 0.053
23756 H 156.111 181.924 13.5115 H 0 **** 0.053
23757 H 156.559 183.633 13.6729 H 0 **** 0.053
23758 H 155.063 180.308 14.6777 H 0 **** 0.053
23759 H 154.828 180.302 16.4311 H 0 **** 0.053
23760 H 156.225 181.142 15.7436 H 0 **** 0.053
23761 C 186.688 154.817 48.5098 C.2 0 **** 0
23762 C 187.703 154.118 47.8759 C.2 0 **** 0
23763 C 187.831 152.752 48.0724 C.2 0 **** 0
23764 C 186.934 152.104 48.8859 C.2 0 **** 0
23765 C 185.881 152.789 49.4799 C.2 0 **** 0
23766 C 185.754 154.148 49.2815 C.2 0 **** 0
23767 C 187.061 150.615 49.1381 C.3 0 **** -0.106
23768 C 188.291 149.887 48.6131 C.2 0 **** 0
23769 C 189.189 150.525 47.8035 C.2 0 **** 0
23770 C 188.958 151.978 47.3938 C.3 0 **** -0.106
23771 C 190.324 149.84 47.3578 C.2 0 **** 0
23772 C 190.594 148.553 47.78 C.2 0 **** 0
23773 C 189.633 147.871 48.5179 C.2 0 **** 0
23774 C 188.483 148.538 48.9575 C.2 0 **** 0
23775 C 187.551 147.875 49.7418 C.2 0 **** -0.1268
23776 C 187.727 146.607 50.2549 C.2 0 **** 0
23777 C 188.989 146.008 49.9047 C.2 0 **** 0
23778 C 189.784 146.537 48.885 C.2 0 **** 0.042
23779 C 189.361 144.626 50.479 C.3 0 **** 0
23780 C 188.344 143.912 51.3723 C.3 0 **** 0
23781 C 186.94 144.536 51.5002 C.2 0 **** 0
23782 C 186.675 145.847 50.9861 C.2 0 **** 0
23783 C 188.97 143.033 52.4759 C.3 0 **** -0.106
23784 C 190.099 143.759 53.2146 C.3 0 **** -0.053
23785 C 191.262 144.15 52.2521 C.3 0 **** -0.053
23786 C 190.829 144.23 50.7642 C.3 0 **** -0.106
23787 C 185.341 146.291 51.0828 C.2 0 **** 0.042
23788 C 184.373 145.503 51.6686 C.2 0 **** 0.052
23789 C 184.662 144.228 52.1295 C.2 0 **** 0.052
23790 C 185.929 143.726 51.985 C.2 0 **** 0.042
23791 C 183.622 143.341 52.7623 C.2 0 **** 0.367
23792 C 182.246 143.908 52.876 C.2 0 **** 0
23793 C 181.955 145.132 52.4195 C.2 0 **** 0
23794 C 182.963 146.022 51.7945 C.2 0 **** 0.367
23795 C 180.562 145.704 52.5485 C.3 0 **** -0.106
23796 C 179.938 145.215 53.8797 C.3 0 **** -0.106
23797 C 180.017 143.693 53.9959 C.2 0 **** 0
23798 C 181.172 143.041 53.5088 C.2 0 **** 0.2405
23799 N 181.33 141.703 53.5978 N.2 0 **** -0.481
23800 C 180.402 141.007 54.2473 C.2 0 **** 0.2405
23801 C 179.211 141.596 54.7303 C.2 0 **** 0
23802 C 179.026 142.948 54.5853 C.2 0 **** 0
23803 C 177.772 143.639 55.107 C.3 0 **** -0.106
23804 C 176.637 142.657 55.4201 C.3 0 **** -0.106
23805 C 177.169 141.456 56.1955 C.3 0 **** -0.106
23806 C 178.171 140.677 55.3217 C.3 0 **** -0.053
23807 C 178.862 139.546 56.1267 C.3 0 **** -0.106
23808 C 179.902 138.874 55.2704 C.2 0 **** 0
23809 C 180.664 139.619 54.3683 C.2 0 **** 0
23810 C 181.662 138.976 53.614 C.2 0 **** -0.1268
23811 C 181.894 137.627 53.7961 C.2 0 **** -0.1268
23812 C 181.172 136.89 54.7188 C.2 0 **** 0
23813 C 180.184 137.526 55.4703 C.2 0 **** 0
23814 C 184.589 154.897 49.8761 C.3 0 **** -0.106
23815 C 184.879 155.309 51.3347 C.3 0 **** -0.159
23816 C 186.61 156.313 48.3474 C.3 0 **** -0.159
23817 C 184.926 152.002 50.3469 C.3 0 **** -0.159
23818 C 188.677 154.841 46.9776 C.3 0 **** -0.159
23819 C 191.279 150.586 46.4269 C.3 0 **** -0.159
23820 C 191.94 147.976 47.4102 C.3 0 **** -0.159
23821 O 190.753 145.753 48.3275 O.3 0 **** -0.452
23822 C 192.439 143.173 52.2779 C.3 0 **** -0.159
23823 C 190.537 142.872 54.3858 C.3 0 **** -0.159
23824 O 186.259 142.438 52.3117 O.3 0 **** -0.452
23825 O 184.984 147.501 50.5848 O.3 0 **** -0.452
23826 O 182.666 147.104 51.4008 O.2 0 **** -0.419
23827 O 183.91 142.259 53.1856 O.2 0 **** -0.419
23828 C 179.419 136.733 56.5167 C.3 0 **** -0.159
23829 C 181.506 135.421 54.8852 C.3 0 **** -0.159
23830 H 187.036 150.466 50.2425 H 0 **** 0.053
23831 H 186.152 150.111 48.7277 H 0 **** 0.053
23832 H 188.779 152.008 46.2919 H 0 **** 0.053
23833 H 189.905 152.534 47.5728 H 0 **** 0.053
23834 H 186.679 148.445 49.9721 H 0 **** 0.1268
23835 H 188.223 142.718 53.2069 H 0 **** 0.053
23836 H 189.354 142.142 51.9739 H 0 **** 0.053
23837 H 189.68 144.689 53.6381 H 0 **** 0.053
23838 H 191.623 145.139 52.5612 H 0 **** 0.053
23839 H 190.919 143.237 50.3131 H 0 **** 0.053
23840 H 191.53 144.892 50.2421 H 0 **** 0.053
23841 H 180.55 146.809 52.5271 H 0 **** 0.053
23842 H 179.96 145.363 51.6881 H 0 **** 0.053
23843 H 178.906 145.606 53.9202 H 0 **** 0.053
23844 H 180.476 145.699 54.723 H 0 **** 0.053
23845 H 178.021 144.202 56.0275 H 0 **** 0.053
23846 H 177.386 144.378 54.3817 H 0 **** 0.053
23847 H 176.18 142.301 54.4772 H 0 **** 0.053
23848 H 175.832 143.163 55.9844 H 0 **** 0.053
23849 H 176.347 140.786 56.5117 H 0 **** 0.053
23850 H 177.672 141.801 57.1174 H 0 **** 0.053
23851 H 177.593 140.205 54.4901 H 0 **** 0.053
23852 H 179.338 139.984 57.0334 H 0 **** 0.053
23853 H 178.078 138.847 56.4916 H 0 **** 0.053
23854 H 182.264 139.535 52.8874 H 0 **** 0.1268
23855 H 182.681 137.131 53.2051 H 0 **** 0.1268
23856 H 183.653 154.305 49.8456 H 0 **** 0.053
23857 H 184.334 155.801 49.2958 H 0 **** 0.053
23858 H 185.778 155.945 51.3961 H 0 **** 0.053
23859 H 185.043 154.429 51.9771 H 0 **** 0.053
23860 H 184.038 155.884 51.7726 H 0 **** 0.053
23861 H 187.601 156.782 48.1918 H 0 **** 0.053
23862 H 186.205 156.821 49.2434 H 0 **** 0.053
23863 H 185.969 156.606 47.4865 H 0 **** 0.053
23864 H 185.446 151.544 51.2182 H 0 **** 0.053
23865 H 184.444 151.172 49.7849 H 0 **** 0.053
23866 H 184.101 152.586 50.7805 H 0 **** 0.053
23867 H 189.137 154.19 46.2093 H 0 **** 0.053
23868 H 189.513 155.291 47.558 H 0 **** 0.053
23869 H 188.197 155.656 46.4034 H 0 **** 0.053
23870 H 191.781 149.915 45.7072 H 0 **** 0.053
23871 H 192.072 151.128 46.9921 H 0 **** 0.053
23872 H 190.771 151.34 45.7841 H 0 **** 0.053
23873 H 192.402 147.418 48.2545 H 0 **** 0.053
23874 H 192.726 148.739 47.1587 H 0 **** 0.053
23875 H 191.896 147.277 46.5348 H 0 **** 0.053
23876 H 190.551 144.828 48.4926 H 0 **** 0.41
23877 H 192.925 143.148 53.2624 H 0 **** 0.053
23878 H 193.207 143.474 51.5403 H 0 **** 0.053
23879 H 192.116 142.146 52.0161 H 0 **** 0.053
23880 H 189.692 142.69 55.0754 H 0 **** 0.053
23881 H 191.342 143.345 54.9676 H 0 **** 0.053
23882 H 190.889 141.88 54.0364 H 0 **** 0.053
23883 H 185.502 142.037 52.764 H 0 **** 0.41
23884 H 184.049 147.674 50.7713 H 0 **** 0.41
23885 H 179.409 137.254 57.4926 H 0 **** 0.053
23886 H 179.85 135.734 56.7194 H 0 **** 0.053
23887 H 178.365 136.564 56.2137 H 0 **** 0.053
23888 H 181.879 135.197 55.9011 H 0 **** 0.053
23889 H 182.292 135.091 54.1838 H 0 **** 0.053
23890 H 180.629 134.777 54.6996 H 0 **** 0.053
23891 C 174.027 135.842 50.5056 C.2 0 **** 0
23892 C 173.611 135.362 49.2738 C.2 0 **** 0
23893 C 174.519 134.746 48.4275 C.2 0 **** 0
23894 C 175.824 134.607 48.8311 C.2 0 **** 0
23895 C 176.236 135.037 50.0872 C.2 0 **** 0
23896 C 175.33 135.647 50.9295 C.2 0 **** 0
23897 C 176.846 133.959 47.9184 C.3 0 **** -0.106
23898 C 176.44 133.62 46.4904 C.2 0 **** 0
23899 C 175.143 133.757 46.0807 C.2 0 **** 0
23900 C 174.073 134.232 47.0612 C.3 0 **** -0.106
23901 C 174.804 133.464 44.7558 C.2 0 **** 0
23902 C 175.768 133.111 43.8325 C.2 0 **** 0
23903 C 177.065 132.873 44.2717 C.2 0 **** 0
23904 C 177.417 133.144 45.5994 C.2 0 **** 0
23905 C 178.725 132.962 46.0243 C.2 0 **** -0.1268
23906 C 179.778 132.649 45.1899 C.2 0 **** 0
23907 C 179.404 132.523 43.8049 C.2 0 **** 0
23908 C 178.065 132.408 43.423 C.2 0 **** 0.042
23909 C 180.492 132.261 42.7445 C.3 0 **** 0
23910 C 181.94 132.095 43.2131 C.3 0 **** 0
23911 C 182.198 132.022 44.7315 C.2 0 **** 0
23912 C 181.152 132.327 45.6638 C.2 0 **** 0
23913 C 182.998 132.603 42.2107 C.3 0 **** -0.106
23914 C 182.642 133.984 41.6535 C.3 0 **** -0.053
23915 C 181.284 133.966 40.8877 C.3 0 **** -0.053
23916 C 180.362 132.787 41.2948 C.3 0 **** -0.106
23917 C 181.469 132.152 47.0258 C.2 0 **** 0.042
23918 C 182.727 131.741 47.4136 C.2 0 **** 0.052
23919 C 183.704 131.429 46.4798 C.2 0 **** 0.052
23920 C 183.415 131.51 45.1433 C.2 0 **** 0.042
23921 C 185.081 130.966 46.8747 C.2 0 **** 0.367
23922 C 185.352 130.861 48.3388 C.2 0 **** 0
23923 C 184.41 131.145 49.2458 C.2 0 **** 0
23924 C 183.048 131.604 48.8801 C.2 0 **** 0.367
23925 C 184.696 131.047 50.7268 C.3 0 **** -0.106
23926 C 186.162 131.474 50.9873 C.3 0 **** -0.106
23927 C 187.127 130.691 50.097 C.2 0 **** 0
23928 C 186.731 130.397 48.7726 C.2 0 **** 0.2405
23929 N 187.536 129.732 47.9164 N.2 0 **** -0.481
23930 C 188.768 129.436 48.3192 C.2 0 **** 0.2405
23931 C 189.212 129.678 49.64 C.2 0 **** 0
23932 C 188.37 130.299 50.5273 C.2 0 **** 0
23933 C 188.805 130.605 51.9553 C.3 0 **** -0.106
23934 C 190.053 129.821 52.3783 C.3 0 **** -0.106
23935 C 191.111 129.869 51.2813 C.3 0 **** -0.106
23936 C 190.58 129.166 50.0177 C.3 0 **** -0.053
23937 C 191.556 129.337 48.8237 C.3 0 **** -0.106
23938 C 190.959 128.723 47.5854 C.2 0 **** 0
23939 C 189.585 128.805 47.3483 C.2 0 **** 0
23940 C 189.057 128.265 46.1617 C.2 0 **** -0.1268
23941 C 189.906 127.689 45.2363 C.2 0 **** -0.1268
23942 C 191.273 127.642 45.4448 C.2 0 **** 0
23943 C 191.799 128.18 46.6192 C.2 0 **** 0
23944 C 175.747 136.072 52.3145 C.3 0 **** -0.106
23945 C 176.408 137.467 52.2944 C.3 0 **** -0.159
23946 C 173.046 136.577 51.3808 C.3 0 **** -0.159
23947 C 177.685 134.831 50.4648 C.3 0 **** -0.159
23948 C 172.172 135.514 48.8454 C.3 0 **** -0.159
23949 C 173.335 133.6 44.3562 C.3 0 **** -0.159
23950 C 175.335 133.016 42.3885 C.3 0 **** -0.159
23951 O 177.772 131.915 42.1827 O.3 0 **** -0.452
23952 C 181.434 133.854 39.3691 C.3 0 **** -0.159
23953 C 183.825 134.465 40.8045 C.3 0 **** -0.159
23954 O 184.289 131.111 44.1684 O.3 0 **** -0.452
23955 O 180.532 132.374 47.981 O.3 0 **** -0.452
23956 O 182.238 131.847 49.715 O.2 0 **** -0.419
23957 O 185.916 130.741 46.0472 O.2 0 **** -0.419
23958 C 193.303 128.171 46.8338 C.3 0 **** -0.159
23959 C 192.143 127.022 44.3696 C.3 0 **** -0.159
23960 H 177.718 134.65 47.859 H 0 **** 0.053
23961 H 177.213 133.025 48.4104 H 0 **** 0.053
23962 H 173.353 133.395 47.2278 H 0 **** 0.053
23963 H 173.498 135.045 46.565 H 0 **** 0.053
23964 H 178.881 133.133 47.0657 H 0 **** 0.1268
23965 H 183.988 132.657 42.6679 H 0 **** 0.053
23966 H 183.033 131.865 41.4057 H 0 **** 0.053
23967 H 182.541 134.676 42.5089 H 0 **** 0.053
23968 H 180.766 134.906 41.119 H 0 **** 0.053
23969 H 180.608 131.915 40.6826 H 0 **** 0.053
23970 H 179.328 133.069 41.0641 H 0 **** 0.053
23971 H 184.021 131.677 51.3342 H 0 **** 0.053
23972 H 184.531 130.004 51.0489 H 0 **** 0.053
23973 H 186.355 131.343 52.0659 H 0 **** 0.053
23974 H 186.253 132.565 50.7958 H 0 **** 0.053
23975 H 189.015 131.687 52.0501 H 0 **** 0.053
23976 H 188.003 130.375 52.6803 H 0 **** 0.053
23977 H 189.784 128.765 52.5705 H 0 **** 0.053
23978 H 190.455 130.217 53.3292 H 0 **** 0.053
23979 H 192.053 129.39 51.6103 H 0 **** 0.053
23980 H 191.355 130.921 51.0451 H 0 **** 0.053
23981 H 190.506 128.075 50.2478 H 0 **** 0.053
23982 H 191.743 130.423 48.6606 H 0 **** 0.053
23983 H 192.534 128.89 49.105 H 0 **** 0.053
23984 H 187.98 128.303 45.9574 H 0 **** 0.1268
23985 H 189.486 127.272 44.3066 H 0 **** 0.1268
23986 H 176.443 135.348 52.7817 H 0 **** 0.053
23987 H 174.896 136.093 53.0179 H 0 **** 0.053
23988 H 175.722 138.225 51.8822 H 0 **** 0.053
23989 H 177.323 137.469 51.6798 H 0 **** 0.053
23990 H 176.695 137.799 53.3122 H 0 **** 0.053
23991 H 172.271 137.116 50.801 H 0 **** 0.053
23992 H 173.523 137.363 51.9958 H 0 **** 0.053
23993 H 172.515 135.892 52.0782 H 0 **** 0.053
23994 H 178.368 135.381 49.7791 H 0 **** 0.053
23995 H 177.976 133.759 50.4213 H 0 **** 0.053
23996 H 177.956 135.173 51.4747 H 0 **** 0.053
23997 H 171.847 134.755 48.1069 H 0 **** 0.053
23998 H 171.984 136.509 48.3854 H 0 **** 0.053
23999 H 171.465 135.401 49.69 H 0 **** 0.053
24000 H 173.04 132.881 43.5719 H 0 **** 0.053
24001 H 173.098 134.623 43.9824 H 0 **** 0.053
24002 H 172.629 133.392 45.1923 H 0 **** 0.053
24003 H 176.083 133.466 41.6977 H 0 **** 0.053
24004 H 174.397 133.583 42.1396 H 0 **** 0.053
24005 H 175.16 131.963 42.0473 H 0 **** 0.053
24006 H 178.52 131.41 41.8538 H 0 **** 0.41
24007 H 181.95 134.727 38.9463 H 0 **** 0.053
24008 H 180.44 133.794 38.886 H 0 **** 0.053
24009 H 181.993 132.941 39.0857 H 0 **** 0.053
24010 H 184.744 134.531 41.4171 H 0 **** 0.053
24011 H 183.637 135.464 40.3832 H 0 **** 0.053
24012 H 184.04 133.765 39.9729 H 0 **** 0.053
24013 H 185.139 130.91 44.5878 H 0 **** 0.41
24014 H 180.92 132.256 48.8611 H 0 **** 0.41
24015 H 193.677 129.171 47.1229 H 0 **** 0.053
24016 H 193.879 127.89 45.9309 H 0 **** 0.053
24017 H 193.601 127.456 47.6286 H 0 **** 0.053
24018 H 192.845 127.756 43.9334 H 0 **** 0.053
24019 H 191.547 126.624 43.53 H 0 **** 0.053
24020 H 192.739 126.178 44.7588 H 0 **** 0.053
24021 C1 168.337 153.379 48.0772 C.ar 0 **** 0.042
24022 C2 167.019 153.452 47.6673 C.ar 0 **** -0.1268
24023 C3 166.108 154.238 48.3529 C.ar 0 **** 0
24024 C4 166.494 154.975 49.4731 C.ar 0 **** 0
24025 C5 167.833 154.905 49.8714 C.ar 0 **** -0.1268
24026 C6 168.75 154.111 49.1992 C.ar 0 **** 0
24027 C7 165.315 155.678 49.955 C.ar 0 **** 0
24028 C8 164.263 155.361 49.1133 C.ar 0 **** 0
24029 C9 164.657 154.421 48.0258 C.3 0 **** -0.106
24030 C10 163.006 155.913 49.3321 C.ar 0 **** 0
24031 C11 162.786 156.8 50.4068 C.ar 0 **** 0
24032 C12 163.901 157.082 51.2431 C.ar 0 **** 0
24033 C13 165.163 156.516 51.0313 C.ar 0 **** 0
24034 C14 166.31 156.849 51.9441 C.3 0 **** -0.106
24035 C15 165.815 157.117 53.3657 C.3 0 **** -0.106
24036 C16 164.882 158.296 53.3094 C.3 0 **** -0.106
24037 C17 163.686 158.033 52.4191 C.ar 0 **** 0
24038 C18 162.493 158.636 52.6603 C.ar 0 **** 0
24039 C19 161.418 158.402 51.8497 C.ar 0 **** 0
24040 C20 161.495 157.39 50.6399 C.ar 0 **** 0
24041 C21 160.419 156.975 49.7576 C.ar 0 **** 0
24042 C22 160.74 156.117 48.701 C.ar 0 **** 0
24043 C23 161.964 155.589 48.4788 C.ar 0 **** 0.042
24044 C24 160.108 159.125 52.1242 C.3 0 **** -0.106
24045 C25 160.155 160.278 53.1688 C.ar 0 **** 0
24046 C26 161.256 160.444 53.9727 C.ar 0 **** 0
24047 C27 162.462 159.569 53.8674 C.3 0 **** -0.106
24048 C28 161.277 161.443 54.944 C.ar 0 **** 0.042
24049 C29 160.201 162.29 55.1503 C.ar 0 **** 0
24050 C30 159.104 162.114 54.3217 C.ar 0 **** 0
24051 C31 159.064 161.126 53.3417 C.ar 0 **** 0
24052 C32 157.852 162.998 54.4486 C.ar 0 **** 0
24053 C33 157.945 164.061 55.5483 C.3 0 **** -0.106
24054 C34 158.816 163.617 56.7223 C.3 0 **** -0.106
24055 C35 160.231 163.369 56.2055 C.3 0 **** -0.106
24056 C36 157.814 161.022 52.4909 C.ar 0 **** -0.1268
24057 C37 156.771 161.866 52.7041 C.ar 0 **** 0.0265
24058 C38 156.774 162.821 53.6448 C.ar 0 **** -0.1268
24059 C39 159.637 155.743 47.7817 C.3 0 **** -0.106
24060 C40 158.54 156.478 48.4811 C.ar 0 **** 0
24061 C41 158.979 157.182 49.6037 C.ar 0 **** 0
24062 C42 157.973 157.854 50.3279 C.ar 0 **** -0.1268
24063 C43 156.625 157.849 49.9128 C.ar 0 **** 0
24064 C44 156.223 157.141 48.7603 C.ar 0 **** 0
24065 C45 157.206 156.438 48.0458 C.ar 0 **** 0
24066 C46 156.819 155.696 46.9084 C.ar 0 **** -0.1268
24067 C47 155.507 155.638 46.4663 C.ar 0 **** 0
24068 C48 154.553 156.335 47.1861 C.ar 0 **** -0.1268
24069 C49 154.876 157.088 48.3269 C.ar 0 **** 0
24070 C50 153.906 157.788 49.0664 C.ar 0 **** 0.042
24071 C51 154.268 158.497 50.1946 C.ar 0 **** -0.1268
24072 C52 155.593 158.525 50.6205 C.ar 0 **** -0.1268
24073 O53 169.245 152.602 47.3984 O.3 0 **** -0.452
24074 C54 170.2 154.057 49.6546 C.3 0 **** -0.159
24075 O55 162.153 154.758 47.4391 O.3 0 **** -0.452
24076 C56 155.236 154.79 45.2281 C.3 0 **** -0.106
24077 C57 153.799 154.929 44.7117 C.3 0 **** -0.159
24078 O58 155.681 161.731 51.9299 O.3 0 **** -0.4365
24079 O59 162.36 161.641 55.7561 O.3 0 **** -0.452
24080 O60 152.594 157.822 48.7585 O.3 0 **** -0.452
24081 H61 166.653 152.888 46.7782 H 0 **** 0.1268
24082 H62 168.245 155.468 50.7192 H 0 **** 0.1268
24083 H63 164.132 153.45 48.0709 H 0 **** 0.053
24084 H64 164.55 154.849 47.0119 H 0 **** 0.053
24085 H65 167.021 156.031 52.0099 H 0 **** 0.053
24086 H66 166.85 157.752 51.5816 H 0 **** 0.053
24087 H67 165.312 156.21 53.7811 H 0 **** 0.053
24088 H68 166.688 157.33 54.0518 H 0 **** 0.053
24089 H69 164.567 158.532 54.3334 H 0 **** 0.053
24090 H70 165.44 159.173 52.9372 H 0 **** 0.053
24091 H71 159.745 159.555 51.1671 H 0 **** 0.053
24092 H72 163.341 160.217 53.794 H 0 **** 0.053
24093 H73 158.365 164.989 55.1091 H 0 **** 0.053
24094 H74 156.922 164.295 55.8713 H 0 **** 0.053
24095 H75 158.824 164.394 57.4968 H 0 **** 0.053
24096 H76 158.405 162.707 57.1821 H 0 **** 0.053
24097 H77 160.64 164.289 55.7666 H 0 **** 0.053
24098 H78 160.886 163.081 57.0201 H 0 **** 0.053
24099 H79 157.796 160.277 51.7189 H 0 **** 0.1268
24100 H80 155.934 163.482 53.7874 H 0 **** 0.1268
24101 H81 159.776 156.124 46.7578 H 0 **** 0.053
24102 H82 159.433 154.66 47.7628 H 0 **** 0.053
24103 H83 158.128 158.396 51.2497 H 0 **** 0.1268
24104 H84 157.583 155.137 46.3378 H 0 **** 0.1268
24105 H85 153.522 156.287 46.846 H 0 **** 0.1268
24106 H86 153.523 159.048 50.793 H 0 **** 0.1268
24107 H87 155.871 159.075 51.5637 H 0 **** 0.1268
24108 H88 168.793 152.183 46.6781 H 0 **** 0.41
24109 H89 170.632 153.067 49.4695 H 0 **** 0.053
24110 H90 170.3 154.254 50.731 H 0 **** 0.053
24111 H91 170.805 154.797 49.107 H 0 **** 0.053
24112 H92 161.344 154.637 46.9609 H 0 **** 0.41
24113 H93 155.922 155.082 44.4267 H 0 **** 0.053
24114 H94 153.636 154.311 43.8067 H 0 **** 0.053
24115 H95 153.562 155.975 44.437 H 0 **** 0.053
24116 H96 153.06 154.595 45.4636 H 0 **** 0.053
24117 H97 155.823 161.094 51.2484 H 0 **** 0.41
24118 H98 163.035 161.013 55.5557 H 0 **** 0.41
24119 H99 152.44 157.304 47.9787 H 0 **** 0.41
24120 H100 159.414 158.366 52.5414 H 0 **** 0.053
24121 H101 162.542 158.952 54.7693 H 0 **** 0.053
24122 H102 155.429 153.736 45.4552 H 0 **** 0.053
24123 C1 132.778 180.833 59.5203 C.ar 0 **** 0.042
24124 C2 134.09 180.401 59.4725 C.ar 0 **** -0.1268
24125 C3 134.916 180.524 60.5779 C.ar 0 **** 0
24126 C4 134.447 181.087 61.7655 C.ar 0 **** 0
24127 C5 133.114 181.509 61.8077 C.ar 0 **** -0.1268
24128 C6 132.284 181.402 60.7024 C.ar 0 **** 0
24129 C7 135.55 181.074 62.7143 C.ar 0 **** 0
24130 C8 136.638 180.496 62.085 C.ar 0 **** 0
24131 C9 136.349 180.097 60.6786 C.3 0 **** -0.106
24132 C10 137.837 180.339 62.7723 C.ar 0 **** 0
24133 C11 137.959 180.761 64.1129 C.ar 0 **** 0
24134 C12 136.81 181.355 64.7047 C.ar 0 **** 0
24135 C13 135.608 181.526 64.0089 C.ar 0 **** 0
24136 C14 134.423 182.158 64.6823 C.3 0 **** -0.106
24137 C15 134.869 183.195 65.7134 C.3 0 **** -0.106
24138 C16 135.692 182.481 66.751 C.3 0 **** -0.106
24139 C17 136.921 181.829 66.1531 C.ar 0 **** 0
24140 C18 138.05 181.665 66.8901 C.ar 0 **** 0
24141 C19 139.154 181.068 66.3489 C.ar 0 **** 0
24142 C20 139.187 180.594 64.8427 C.ar 0 **** 0
24143 C21 140.31 180.034 64.1119 C.ar 0 **** 0
24144 C22 140.085 179.615 62.7958 C.ar 0 **** 0
24145 C23 138.917 179.756 62.1298 C.ar 0 **** 0.042
24146 C24 140.389 180.865 67.2141 C.3 0 **** -0.106
24147 C25 140.222 181.128 68.7392 C.ar 0 **** 0
24148 C26 139.098 181.756 69.2177 C.ar 0 **** 0
24149 C27 137.978 182.181 68.3247 C.3 0 **** -0.106
24150 C28 138.971 182.04 70.576 C.ar 0 **** 0.042
24151 C29 139.962 181.721 71.4884 C.ar 0 **** 0
24152 C30 141.084 181.077 70.9889 C.ar 0 **** 0
24153 C31 141.228 180.779 69.6361 C.ar 0 **** 0
24154 C32 142.248 180.665 71.9045 C.ar 0 **** 0
24155 C33 142.042 181.025 73.3792 C.3 0 **** -0.106
24156 C34 141.197 182.284 73.5645 C.3 0 **** -0.106
24157 C35 139.818 182.033 72.9588 C.3 0 **** -0.106
24158 C36 142.495 180.072 69.1982 C.ar 0 **** -0.1268
24159 C37 143.455 179.762 70.1091 C.ar 0 **** 0.0265
24160 C38 143.35 180.046 71.4149 C.ar 0 **** -0.1268
24161 C39 141.231 179.001 62.0812 C.3 0 **** -0.106
24162 C40 142.245 179.157 63.1667 C.ar 0 **** 0
24163 C41 141.727 179.741 64.3244 C.ar 0 **** 0
24164 C42 142.657 179.954 65.363 C.ar 0 **** -0.1268
24165 C43 144.006 179.559 65.2495 C.ar 0 **** 0
24166 C44 144.488 178.952 64.0697 C.ar 0 **** 0
24167 C45 143.584 178.763 63.0123 C.ar 0 **** 0
24168 C46 144.053 178.188 61.8109 C.ar 0 **** -0.1268
24169 C47 145.373 177.799 61.635 C.ar 0 **** 0
24170 C48 146.247 177.998 62.6877 C.ar 0 **** -0.1268
24171 C49 145.841 178.566 63.9069 C.ar 0 **** 0
24172 C50 146.732 178.778 64.9746 C.ar 0 **** 0.042
24173 C51 146.29 179.363 66.1452 C.ar 0 **** -0.1268
24174 C52 144.961 179.755 66.2853 C.ar 0 **** -0.1268
24175 O53 131.955 180.712 58.4268 O.3 0 **** -0.452
24176 C54 130.838 181.867 60.7794 C.3 0 **** -0.159
24177 O55 138.821 179.334 60.8567 O.3 0 **** -0.452
24178 C56 145.738 177.201 60.2807 C.3 0 **** -0.106
24179 C57 147.163 176.639 60.2406 C.3 0 **** -0.159
24180 O58 144.564 179.141 69.672 O.3 0 **** -0.4365
24181 O59 137.861 182.657 71.0864 O.3 0 **** -0.452
24182 O60 148.039 178.451 64.9503 O.3 0 **** -0.452
24183 H61 134.519 179.94 58.5533 H 0 **** 0.1268
24184 H62 132.64 181.936 62.7014 H 0 **** 0.1268
24185 H63 136.959 180.638 59.9325 H 0 **** 0.053
24186 H64 136.431 179.009 60.5015 H 0 **** 0.053
24187 H65 133.787 182.678 63.9713 H 0 **** 0.053
24188 H66 133.809 181.388 65.1988 H 0 **** 0.053
24189 H67 135.446 184.014 65.2183 H 0 **** 0.053
24190 H68 133.971 183.691 66.1865 H 0 **** 0.053
24191 H69 135.969 183.207 67.5259 H 0 **** 0.053
24192 H70 135.062 181.717 67.2395 H 0 **** 0.053
24193 H71 140.725 179.814 67.0916 H 0 **** 0.053
24194 H72 137.045 181.804 68.7539 H 0 **** 0.053
24195 H73 141.547 180.172 73.886 H 0 **** 0.053
24196 H74 143.035 181.134 73.8363 H 0 **** 0.053
24197 H75 141.107 182.521 74.6319 H 0 **** 0.053
24198 H76 141.683 183.145 73.0831 H 0 **** 0.053
24199 H77 139.334 181.184 73.4603 H 0 **** 0.053
24200 H78 139.18 182.898 73.0994 H 0 **** 0.053
24201 H79 142.593 179.82 68.1595 H 0 **** 0.1268
24202 H80 144.124 179.786 72.1193 H 0 **** 0.1268
24203 H81 141.073 177.938 61.8394 H 0 **** 0.053
24204 H82 141.533 179.558 61.1802 H 0 **** 0.053
24205 H83 142.44 180.446 66.2998 H 0 **** 0.1268
24206 H84 143.353 178.033 60.9704 H 0 **** 0.1268
24207 H85 147.284 177.699 62.5521 H 0 **** 0.1268
24208 H86 146.972 179.546 66.9916 H 0 **** 0.1268
24209 H87 144.62 180.266 67.2297 H 0 **** 0.1268
24210 H88 132.451 180.311 57.7264 H 0 **** 0.41
24211 H89 130.5 182.258 59.8124 H 0 **** 0.053
24212 H90 130.704 182.672 61.5145 H 0 **** 0.053
24213 H91 130.176 181.03 61.0546 H 0 **** 0.053
24214 H92 139.644 178.959 60.5734 H 0 **** 0.41
24215 H93 145.04 176.394 60.0355 H 0 **** 0.053
24216 H94 147.395 176.203 59.2487 H 0 **** 0.053
24217 H95 147.309 175.838 60.9904 H 0 **** 0.053
24218 H96 147.918 177.426 60.4268 H 0 **** 0.053
24219 H97 144.487 178.917 68.7581 H 0 **** 0.41
24220 H98 137.251 182.852 70.3938 H 0 **** 0.41
24221 H99 148.253 178.073 64.1068 H 0 **** 0.41
24222 H100 141.142 181.598 66.8609 H 0 **** 0.053
24223 H101 137.941 183.276 68.2843 H 0 **** 0.053
24224 H102 145.639 177.965 59.5015 H 0 **** 0.053
24225 C1 119.307 116.142 23.295 C.ar 0 **** 0.042
24226 C2 118.876 114.836 23.1547 C.ar 0 **** -0.1268
24227 C3 119.084 114.145 21.9723 C.ar 0 **** 0
24228 C4 119.732 114.749 20.8934 C.ar 0 **** 0
24229 C5 120.175 116.066 21.0498 C.ar 0 **** -0.1268
24230 C6 119.959 116.77 22.2254 C.ar 0 **** 0
24231 C7 119.785 113.768 19.8197 C.ar 0 **** 0
24232 C8 119.187 112.608 20.2796 C.ar 0 **** 0
24233 C9 118.683 112.732 21.6766 C.3 0 **** -0.106
24234 C10 119.113 111.489 19.4568 C.ar 0 **** 0
24235 C11 119.644 111.52 18.1504 C.ar 0 **** 0
24236 C12 120.238 112.741 17.729 C.ar 0 **** 0
24237 C13 120.301 113.871 18.552 C.ar 0 **** 0
24238 C14 120.942 115.138 18.0582 C.3 0 **** -0.106
24239 C15 120.75 115.294 16.5495 C.3 0 **** -0.106
24240 C16 121.415 114.121 15.8813 C.3 0 **** -0.106
24241 C17 120.812 112.802 16.3147 C.ar 0 **** 0
24242 C18 120.808 111.732 15.479 C.ar 0 **** 0
24243 C19 120.27 110.54 15.877 C.ar 0 **** 0
24244 C20 119.587 110.368 17.2907 C.ar 0 **** 0
24245 C21 118.898 109.199 17.8089 C.ar 0 **** 0
24246 C22 118.432 109.252 19.1268 C.ar 0 **** 0
24247 C23 118.515 110.334 19.9328 C.ar 0 **** 0.042
24248 C24 120.317 109.349 14.9309 C.3 0 **** -0.106
24249 C25 121.203 109.504 13.6609 C.ar 0 **** 0
24250 C26 121.693 110.735 13.3 C.ar 0 **** 0
24251 C27 121.439 111.965 14.1093 C.3 0 **** -0.106
24252 C28 122.442 110.883 12.1345 C.ar 0 **** 0.042
24253 C29 122.71 109.817 11.2931 C.ar 0 **** 0
24254 C30 122.218 108.58 11.68 C.ar 0 **** 0
24255 C31 121.472 108.409 12.8429 C.ar 0 **** 0
24256 C32 122.458 107.32 10.8329 C.ar 0 **** 0
24257 C33 123.274 107.567 9.55998 C.3 0 **** -0.106
24258 C34 123.064 108.968 8.98956 C.3 0 **** -0.106
24259 C35 123.522 109.987 10.0313 C.3 0 **** -0.106
24260 C36 120.983 107.013 13.1715 C.ar 0 **** -0.1268
24261 C37 121.263 105.977 12.3372 C.ar 0 **** 0.0265
24262 C38 121.97 106.111 11.2062 C.ar 0 **** -0.1268
24263 C39 117.774 108.032 19.655 C.3 0 **** -0.106
24264 C40 117.857 107.209 18.4103 C.ar 0 **** 0
24265 C41 118.497 107.867 17.3582 C.ar 0 **** 0
24266 C42 118.558 107.15 16.1447 C.ar 0 **** -0.1268
24267 C43 118.047 105.841 16.0243 C.ar 0 **** 0
24268 C44 117.424 105.202 17.1171 C.ar 0 **** 0
24269 C45 117.324 105.913 18.3236 C.ar 0 **** 0
24270 C46 116.676 105.304 19.4196 C.ar 0 **** -0.1268
24271 C47 116.136 104.028 19.3525 C.ar 0 **** 0
24272 C48 116.243 103.346 18.1543 C.ar 0 **** -0.1268
24273 C49 116.875 103.899 17.0285 C.ar 0 **** 0
24274 C50 116.977 103.21 15.8069 C.ar 0 **** 0.042
24275 C51 117.585 103.806 14.7198 C.ar 0 **** -0.1268
24276 C52 118.104 105.095 14.8148 C.ar 0 **** -0.1268
24277 O53 119.105 116.827 24.4694 O.3 0 **** -0.452
24278 C54 120.454 118.201 22.3668 C.3 0 **** -0.159
24279 O55 118.016 110.276 21.1797 O.3 0 **** -0.452
24280 C56 115.458 103.502 20.6124 C.3 0 **** -0.106
24281 C57 115.053 102.028 20.5024 C.3 0 **** -0.159
24282 O58 120.803 104.759 12.6678 O.3 0 **** -0.4365
24283 O59 122.951 112.094 11.7499 O.3 0 **** -0.452
24284 O60 116.506 101.965 15.5959 O.3 0 **** -0.452
24285 H61 118.355 114.301 23.982 H 0 **** 0.1268
24286 H62 120.719 116.62 20.273 H 0 **** 0.1268
24287 H63 117.587 112.622 21.762 H 0 **** 0.053
24288 H64 119.177 112.044 22.3872 H 0 **** 0.053
24289 H65 120.503 116.017 18.5212 H 0 **** 0.053
24290 H66 122.032 115.136 18.2777 H 0 **** 0.053
24291 H67 119.662 115.351 16.2982 H 0 **** 0.053
24292 H68 121.202 116.267 16.1942 H 0 **** 0.053
24293 H69 121.333 114.255 14.7956 H 0 **** 0.053
24294 H70 122.492 114.139 16.1245 H 0 **** 0.053
24295 H71 120.696 108.474 15.4988 H 0 **** 0.053
24296 H72 122.401 112.458 14.2809 H 0 **** 0.053
24297 H73 124.348 107.423 9.79472 H 0 **** 0.053
24298 H74 122.999 106.791 8.8329 H 0 **** 0.053
24299 H75 123.639 109.086 8.06325 H 0 **** 0.053
24300 H76 122.006 109.124 8.73347 H 0 **** 0.053
24301 H77 124.585 109.836 10.2651 H 0 **** 0.053
24302 H78 123.415 110.995 9.64755 H 0 **** 0.053
24303 H79 120.429 106.879 14.0805 H 0 **** 0.1268
24304 H80 122.182 105.269 10.5649 H 0 **** 0.1268
24305 H81 118.332 107.558 20.4778 H 0 **** 0.053
24306 H82 116.724 108.194 19.9481 H 0 **** 0.053
24307 H83 118.963 107.532 15.2188 H 0 **** 0.1268
24308 H84 116.588 105.854 20.3747 H 0 **** 0.1268
24309 H85 115.815 102.348 18.0961 H 0 **** 0.1268
24310 H86 117.667 103.29 13.7489 H 0 **** 0.1268
24311 H87 118.564 105.586 13.9112 H 0 **** 0.1268
24312 H88 118.638 116.253 25.0621 H 0 **** 0.41
24313 H89 119.781 118.787 23.0042 H 0 **** 0.053
24314 H90 120.504 118.716 21.397 H 0 **** 0.053
24315 H91 121.456 118.221 22.8242 H 0 **** 0.053
24316 H92 117.637 109.424 21.3452 H 0 **** 0.41
24317 H93 116.133 103.614 21.4671 H 0 **** 0.053
24318 H94 114.573 101.672 21.4355 H 0 **** 0.053
24319 H95 115.929 101.375 20.3193 H 0 **** 0.053
24320 H96 114.325 101.863 19.6865 H 0 **** 0.053
24321 H97 120.391 104.769 13.516 H 0 **** 0.41
24322 H98 122.709 112.761 12.3713 H 0 **** 0.41
24323 H99 116.077 101.653 16.3825 H 0 **** 0.41
24324 H100 119.281 109.203 14.5614 H 0 **** 0.053
24325 H101 120.782 112.64 13.549 H 0 **** 0.053
24326 H102 114.563 104.099 20.8243 H 0 **** 0.053
24327 C1 96.0297 111.389 33.6877 C.ar 0 **** 0.042
24328 C2 96.2744 111.847 32.4063 C.ar 0 **** -0.1268
24329 C3 97.508 111.649 31.8084 C.ar 0 **** 0
24330 C4 98.5343 110.985 32.4818 C.ar 0 **** 0
24331 C5 98.2723 110.515 33.772 C.ar 0 **** -0.1268
24332 C6 97.0447 110.719 34.3841 C.ar 0 **** 0
24333 C7 99.6831 110.95 31.5897 C.ar 0 **** 0
24334 C8 99.3184 111.574 30.4096 C.ar 0 **** 0
24335 C9 97.9166 112.079 30.4323 C.3 0 **** -0.106
24336 C10 100.228 111.669 29.3625 C.ar 0 **** 0
24337 C11 101.527 111.133 29.4865 C.ar 0 **** 0
24338 C12 101.849 110.512 30.7242 C.ar 0 **** 0
24339 C13 100.938 110.428 31.7829 C.ar 0 **** 0
24340 C14 101.327 109.757 33.0704 C.3 0 **** -0.106
24341 C15 102.819 109.94 33.3513 C.3 0 **** -0.106
24342 C16 103.578 109.298 32.2218 C.3 0 **** -0.106
24343 C17 103.252 109.931 30.8854 C.ar 0 **** 0
24344 C18 104.171 109.956 29.8859 C.ar 0 **** 0
24345 C19 103.871 110.521 28.6785 C.ar 0 **** 0
24346 C20 102.477 111.212 28.4087 C.ar 0 **** 0
24347 C21 102.055 111.928 27.2174 C.ar 0 **** 0
24348 C22 100.738 112.397 27.1745 C.ar 0 **** 0
24349 C23 99.8477 112.294 28.186 C.ar 0 **** 0.042
24350 C24 104.909 110.497 27.5665 C.3 0 **** -0.106
24351 C25 106.161 109.603 27.8034 C.ar 0 **** 0
24352 C26 106.422 109.085 29.0484 C.ar 0 **** 0
24353 C27 105.517 109.315 30.2143 C.3 0 **** -0.106
24354 C28 107.57 108.329 29.2733 C.ar 0 **** 0.042
24355 C29 108.494 108.082 28.2728 C.ar 0 **** 0
24356 C30 108.209 108.602 27.0201 C.ar 0 **** 0
24357 C31 107.065 109.356 26.7728 C.ar 0 **** 0
24358 C32 109.155 108.388 25.8271 C.ar 0 **** 0
24359 C33 110.402 107.562 26.1576 C.3 0 **** -0.106
24360 C34 110.858 107.739 27.604 C.3 0 **** -0.106
24361 C35 109.737 107.262 28.5245 C.3 0 **** -0.106
24362 C36 106.85 109.877 25.3662 C.ar 0 **** -0.1268
24363 C37 107.766 109.62 24.3953 C.ar 0 **** 0.0265
24364 C38 108.881 108.905 24.6037 C.ar 0 **** -0.1268
24365 C39 100.31 113.083 25.9304 C.3 0 **** -0.106
24366 C40 101.617 113.014 25.209 C.ar 0 **** 0
24367 C41 102.612 112.356 25.9347 C.ar 0 **** 0
24368 C42 103.879 112.307 25.3169 C.ar 0 **** -0.1268
24369 C43 104.105 112.846 24.0334 C.ar 0 **** 0
24370 C44 103.068 113.487 23.3222 C.ar 0 **** 0
24371 C45 101.808 113.575 23.9361 C.ar 0 **** 0
24372 C46 100.766 114.241 23.2554 C.ar 0 **** -0.1268
24373 C47 100.936 114.807 22.0014 C.ar 0 **** 0
24374 C48 102.185 114.712 21.416 C.ar 0 **** -0.1268
24375 C49 103.262 114.065 22.0441 C.ar 0 **** 0
24376 C50 104.535 113.977 21.4548 C.ar 0 **** 0.042
24377 C51 105.57 113.35 22.1215 C.ar 0 **** -0.1268
24378 C52 105.37 112.802 23.3858 C.ar 0 **** -0.1268
24379 O53 94.8062 111.581 34.2839 O.3 0 **** -0.452
24380 C54 96.7884 110.193 35.7879 C.3 0 **** -0.159
24381 O55 98.6105 112.799 28.0394 O.3 0 **** -0.452
24382 C56 99.7231 115.501 21.391 C.3 0 **** -0.106
24383 C57 99.952 115.937 19.9395 C.3 0 **** -0.159
24384 O58 107.537 110.11 23.1658 O.3 0 **** -0.4365
24385 O59 107.856 107.794 30.4996 O.3 0 **** -0.452
24386 O60 104.849 114.48 20.2447 O.3 0 **** -0.452
24387 H61 95.4924 112.381 31.8187 H 0 **** 0.1268
24388 H62 99.0001 109.954 34.3744 H 0 **** 0.1268
24389 H63 97.8418 113.178 30.3399 H 0 **** 0.053
24390 H64 97.2626 111.602 29.6791 H 0 **** 0.053
24391 H65 100.795 110.178 33.919 H 0 **** 0.053
24392 H66 101.106 108.668 33.0276 H 0 **** 0.053
24393 H67 103.066 111.025 33.4529 H 0 **** 0.053
24394 H68 103.094 109.465 34.3392 H 0 **** 0.053
24395 H69 104.649 109.374 32.4438 H 0 **** 0.053
24396 H70 103.332 108.222 32.1962 H 0 **** 0.053
24397 H71 104.413 110.138 26.6402 H 0 **** 0.053
24398 H72 105.304 108.343 30.6713 H 0 **** 0.053
24399 H73 110.177 106.492 25.9712 H 0 **** 0.053
24400 H74 111.189 107.85 25.4478 H 0 **** 0.053
24401 H75 111.771 107.157 27.7827 H 0 **** 0.053
24402 H76 111.103 108.792 27.8029 H 0 **** 0.053
24403 H77 109.514 106.203 28.3324 H 0 **** 0.053
24404 H78 110.039 107.344 29.5627 H 0 **** 0.053
24405 H79 105.955 110.436 25.171 H 0 **** 0.1268
24406 H80 109.587 108.71 23.8121 H 0 **** 0.1268
24407 H81 99.5273 112.538 25.3801 H 0 **** 0.053
24408 H82 100.007 114.13 26.0919 H 0 **** 0.053
24409 H83 104.77 111.89 25.7621 H 0 **** 0.1268
24410 H84 99.7694 114.319 23.7283 H 0 **** 0.1268
24411 H85 102.324 115.16 20.4353 H 0 **** 0.1268
24412 H86 106.578 113.275 21.6816 H 0 **** 0.1268
24413 H87 106.23 112.327 23.9368 H 0 **** 0.1268
24414 H88 94.252 112.049 33.6739 H 0 **** 0.41
24415 H89 96.1067 110.854 36.3353 H 0 **** 0.053
24416 H90 97.7134 110.128 36.3775 H 0 **** 0.053
24417 H91 96.329 109.192 35.7484 H 0 **** 0.053
24418 H92 98.5134 113.194 27.184 H 0 **** 0.41
24419 H93 98.8614 114.826 21.4192 H 0 **** 0.053
24420 H94 99.0512 116.428 19.5207 H 0 **** 0.053
24421 H95 100.186 115.076 19.2851 H 0 **** 0.053
24422 H96 100.78 116.666 19.8568 H 0 **** 0.053
24423 H97 106.685 110.512 23.1117 H 0 **** 0.41
24424 H98 107.182 108.021 31.1195 H 0 **** 0.41
24425 H99 104.084 114.897 19.8693 H 0 **** 0.41
24426 H100 105.291 111.534 27.473 H 0 **** 0.053
24427 H101 106.022 109.955 30.9462 H 0 **** 0.053
24428 H102 99.4653 116.383 21.9885 H 0 **** 0.053
24429 C1 125.55 175.753 68.5705 C.ar 0 **** 0.042
24430 C2 126.693 176.047 69.291 C.ar 0 **** -0.1268
24431 C3 127.159 175.177 70.2631 C.ar 0 **** 0
24432 C4 126.49 173.984 70.5402 C.ar 0 **** 0
24433 C5 125.345 173.689 69.7941 C.ar 0 **** -0.1268
24434 C6 124.863 174.559 68.8276 C.ar 0 **** 0
24435 C7 127.224 173.314 71.6027 C.ar 0 **** 0
24436 C8 128.313 174.105 71.9244 C.ar 0 **** 0
24437 C9 128.378 175.356 71.117 C.3 0 **** -0.106
24438 C10 129.206 173.694 72.908 C.ar 0 **** 0
24439 C11 129.017 172.472 73.5862 C.ar 0 **** 0
24440 C12 127.877 171.705 73.2199 C.ar 0 **** 0
24441 C13 126.971 172.125 72.2397 C.ar 0 **** 0
24442 C14 125.783 171.275 71.8879 C.3 0 **** -0.106
24443 C15 125.291 170.494 73.1066 C.3 0 **** -0.106
24444 C16 126.412 169.597 73.5557 C.3 0 **** -0.106
24445 C17 127.647 170.381 73.9462 C.ar 0 **** 0
24446 C18 128.505 169.905 74.8848 C.ar 0 **** 0
24447 C19 129.623 170.612 75.2284 C.ar 0 **** 0
24448 C20 129.938 172.025 74.5967 C.ar 0 **** 0
24449 C21 131.029 172.924 74.9299 C.ar 0 **** 0
24450 C22 131.153 174.099 74.1818 C.ar 0 **** 0
24451 C23 130.294 174.495 73.2163 C.ar 0 **** 0.042
24452 C24 130.584 170.032 76.2551 C.3 0 **** -0.106
24453 C25 130.354 168.548 76.6634 C.ar 0 **** 0
24454 C26 129.196 167.9 76.3086 C.ar 0 **** 0
24455 C27 128.129 168.558 75.4952 C.3 0 **** -0.106
24456 C28 128.966 166.588 76.7189 C.ar 0 **** 0.042
24457 C29 129.871 165.894 77.5026 C.ar 0 **** 0
24458 C30 131.039 166.56 77.8411 C.ar 0 **** 0
24459 C31 131.291 167.869 77.4373 C.ar 0 **** 0
24460 C32 132.124 165.892 78.7007 C.ar 0 **** 0
24461 C33 131.791 164.458 79.1255 C.3 0 **** -0.106
24462 C34 130.291 164.227 79.2908 C.3 0 **** -0.106
24463 C35 129.615 164.473 77.9439 C.3 0 **** -0.106
24464 C36 132.601 168.501 77.8633 C.ar 0 **** -0.1268
24465 C37 133.48 167.802 78.628 C.ar 0 **** 0.0265
24466 C38 133.263 166.546 79.0404 C.ar 0 **** -0.1268
24467 C39 132.302 174.982 74.5038 C.3 0 **** -0.106
24468 C40 132.856 174.178 75.635 C.ar 0 **** 0
24469 C41 132.138 173.006 75.8802 C.ar 0 **** 0
24470 C42 132.593 172.235 76.9704 C.ar 0 **** -0.1268
24471 C43 133.724 172.606 77.7267 C.ar 0 **** 0
24472 C44 134.435 173.79 77.4355 C.ar 0 **** 0
24473 C45 133.977 174.587 76.3745 C.ar 0 **** 0
24474 C46 134.655 175.791 76.0875 C.ar 0 **** -0.1268
24475 C47 135.76 176.216 76.81 C.ar 0 **** 0
24476 C48 136.193 175.418 77.8528 C.ar 0 **** -0.1268
24477 C49 135.559 174.211 78.1883 C.ar 0 **** 0
24478 C50 135.991 173.403 79.2555 C.ar 0 **** 0.042
24479 C51 135.321 172.235 79.5614 C.ar 0 **** -0.1268
24480 C52 134.207 171.842 78.8248 C.ar 0 **** -0.1268
24481 O53 125.083 176.617 67.6082 O.3 0 **** -0.452
24482 C54 123.616 174.208 68.0295 C.3 0 **** -0.159
24483 O55 130.504 175.656 72.5724 O.3 0 **** -0.452
24484 C56 136.386 177.542 76.3918 C.3 0 **** -0.106
24485 C57 137.699 177.841 77.1241 C.3 0 **** -0.159
24486 O58 134.624 168.407 78.9868 O.3 0 **** -0.4365
24487 O59 127.827 165.912 76.3766 O.3 0 **** -0.452
24488 O60 137.046 173.688 80.044 O.3 0 **** -0.452
24489 H61 127.273 176.981 69.1112 H 0 **** 0.1268
24490 H62 124.765 172.763 69.9129 H 0 **** 0.1268
24491 H63 128.285 176.276 71.722 H 0 **** 0.053
24492 H64 129.278 175.425 70.4794 H 0 **** 0.053
24493 H65 124.946 171.877 71.5445 H 0 **** 0.053
24494 H66 126.043 170.551 71.0848 H 0 **** 0.053
24495 H67 124.971 171.195 73.916 H 0 **** 0.053
24496 H68 124.375 169.888 72.8412 H 0 **** 0.053
24497 H69 126.049 168.99 74.394 H 0 **** 0.053
24498 H70 126.656 168.897 72.737 H 0 **** 0.053
24499 H71 131.613 170.11 75.8458 H 0 **** 0.053
24500 H72 127.88 167.889 74.665 H 0 **** 0.053
24501 H73 132.189 163.76 78.3602 H 0 **** 0.053
24502 H74 132.336 164.252 80.0575 H 0 **** 0.053
24503 H75 130.105 163.2 79.6282 H 0 **** 0.053
24504 H76 129.882 164.898 80.0596 H 0 **** 0.053
24505 H77 130.015 163.784 77.188 H 0 **** 0.053
24506 H78 128.549 164.288 78.0161 H 0 **** 0.053
24507 H79 132.805 169.501 77.5296 H 0 **** 0.1268
24508 H80 133.982 166.012 79.6413 H 0 **** 0.1268
24509 H81 133.032 175.062 73.6833 H 0 **** 0.053
24510 H82 131.999 175.984 74.8469 H 0 **** 0.053
24511 H83 132.12 171.334 77.3333 H 0 **** 0.1268
24512 H84 134.304 176.429 75.2554 H 0 **** 0.1268
24513 H85 137.055 175.75 78.4249 H 0 **** 0.1268
24514 H86 135.638 171.59 80.3974 H 0 **** 0.1268
24515 H87 133.645 170.908 79.1072 H 0 **** 0.1268
24516 H88 125.684 177.346 67.5536 H 0 **** 0.41
24517 H89 123.05 175.11 67.7699 H 0 **** 0.053
24518 H90 122.938 173.555 68.5953 H 0 **** 0.053
24519 H91 123.887 173.698 67.0907 H 0 **** 0.053
24520 H92 131.282 176.081 72.9061 H 0 **** 0.41
24521 H93 136.584 177.531 75.315 H 0 **** 0.053
24522 H94 138.134 178.804 76.7915 H 0 **** 0.053
24523 H95 138.459 177.059 76.9355 H 0 **** 0.053
24524 H96 137.549 177.919 78.2172 H 0 **** 0.053
24525 H97 134.711 169.25 78.5697 H 0 **** 0.41
24526 H98 127.265 166.463 75.8564 H 0 **** 0.41
24527 H99 137.435 174.507 79.7656 H 0 **** 0.41
24528 H100 130.447 170.626 77.1819 H 0 **** 0.053
24529 H101 127.24 168.709 76.117 H 0 **** 0.053
24530 H102 135.68 178.359 76.5845 H 0 **** 0.053
24531 C1 114.009 167.235 75.951 C.ar 0 **** 0.042
24532 C2 113.095 167.521 74.9539 C.ar 0 **** -0.1268
24533 C3 113.497 168.146 73.7847 C.ar 0 **** 0
24534 C4 114.831 168.504 73.5826 C.ar 0 **** 0
24535 C5 115.749 168.197 74.5907 C.ar 0 **** -0.1268
24536 C6 115.355 167.583 75.7701 C.ar 0 **** 0
24537 C7 114.914 169.138 72.2757 C.ar 0 **** 0
24538 C8 113.645 169.132 71.7241 C.ar 0 **** 0
24539 C9 112.628 168.512 72.6201 C.3 0 **** -0.106
24540 C10 113.434 169.666 70.4576 C.ar 0 **** 0
24541 C11 114.503 170.216 69.7207 C.ar 0 **** 0
24542 C12 115.783 170.203 70.341 C.ar 0 **** 0
24543 C13 115.993 169.677 71.6208 C.ar 0 **** 0
24544 C14 117.367 169.685 72.2294 C.3 0 **** -0.106
24545 C15 118.169 170.896 71.7538 C.3 0 **** -0.106
24546 C16 118.302 170.797 70.2589 C.3 0 **** -0.106
24547 C17 116.956 170.801 69.566 C.ar 0 **** 0
24548 C18 116.822 171.298 68.3095 C.ar 0 **** 0
24549 C19 115.607 171.292 67.6844 C.ar 0 **** 0
24550 C20 114.305 170.761 68.4041 C.ar 0 **** 0
24551 C21 112.942 170.778 67.9026 C.ar 0 **** 0
24552 C22 111.953 170.182 68.6918 C.ar 0 **** 0
24553 C23 112.158 169.651 69.9173 C.ar 0 **** 0.042
24554 C24 115.499 171.82 66.2616 C.3 0 **** -0.106
24555 C25 116.838 172.105 65.5216 C.ar 0 **** 0
24556 C26 118.025 172.122 66.2125 C.ar 0 **** 0
24557 C27 118.101 171.838 67.6771 C.3 0 **** -0.106
24558 C28 119.218 172.429 65.5605 C.ar 0 **** 0.042
24559 C29 119.259 172.74 64.2124 C.ar 0 **** 0
24560 C30 118.053 172.706 63.5292 C.ar 0 **** 0
24561 C31 116.851 172.397 64.1603 C.ar 0 **** 0
24562 C32 117.971 173.025 62.0274 C.ar 0 **** 0
24563 C33 119.32 173.368 61.3867 C.3 0 **** -0.106
24564 C34 120.282 174.04 62.3643 C.3 0 **** -0.106
24565 C35 120.555 173.072 63.5133 C.3 0 **** -0.106
24566 C36 115.591 172.389 63.3183 C.ar 0 **** -0.1268
24567 C37 115.651 172.691 61.9947 C.ar 0 **** 0.0265
24568 C38 116.791 173.001 61.3604 C.ar 0 **** -0.1268
24569 C39 110.575 170.165 68.1417 C.3 0 **** -0.106
24570 C40 110.858 170.913 66.8793 C.ar 0 **** 0
24571 C41 112.203 171.261 66.7367 C.ar 0 **** 0
24572 C42 112.514 172.011 65.5832 C.ar 0 **** -0.1268
24573 C43 111.537 172.341 64.6212 C.ar 0 **** 0
24574 C44 110.191 171.953 64.7911 C.ar 0 **** 0
24575 C45 109.856 171.235 65.9502 C.ar 0 **** 0
24576 C46 108.509 170.867 66.1555 C.ar 0 **** -0.1268
24577 C47 107.503 171.182 65.2544 C.ar 0 **** 0
24578 C48 107.854 171.892 64.1211 C.ar 0 **** -0.1268
24579 C49 109.176 172.289 63.8623 C.ar 0 **** 0
24580 C50 109.533 173.021 62.7156 C.ar 0 **** 0.042
24581 C51 110.843 173.409 62.5161 C.ar 0 **** -0.1268
24582 C52 111.828 173.088 63.4464 C.ar 0 **** -0.1268
24583 O53 113.615 166.615 77.1127 O.3 0 **** -0.452
24584 C54 116.379 167.259 76.8471 C.3 0 **** -0.159
24585 O55 111.126 169.119 70.5949 O.3 0 **** -0.452
24586 C56 106.093 170.726 65.6115 C.3 0 **** -0.106
24587 C57 105.085 170.959 64.4806 C.3 0 **** -0.159
24588 O58 114.507 172.679 61.2914 O.3 0 **** -0.4365
24589 O59 120.418 172.446 66.2166 O.3 0 **** -0.452
24590 O60 108.665 173.399 61.7558 O.3 0 **** -0.452
24591 H61 112.018 167.255 75.0578 H 0 **** 0.1268
24592 H62 116.825 168.408 74.5175 H 0 **** 0.1268
24593 H63 111.837 169.214 72.9425 H 0 **** 0.053
24594 H64 112.162 167.603 72.1978 H 0 **** 0.053
24595 H65 117.326 169.744 73.3135 H 0 **** 0.053
24596 H66 117.923 168.762 71.9529 H 0 **** 0.053
24597 H67 117.661 171.841 72.064 H 0 **** 0.053
24598 H68 119.185 170.908 72.247 H 0 **** 0.053
24599 H69 118.926 171.631 69.9137 H 0 **** 0.053
24600 H70 118.847 169.868 70.0127 H 0 **** 0.053
24601 H71 114.936 171.076 65.6596 H 0 **** 0.053
24602 H72 118.878 171.083 67.8324 H 0 **** 0.053
24603 H73 119.778 172.433 61.004 H 0 **** 0.053
24604 H74 119.121 174.006 60.5142 H 0 **** 0.053
24605 H75 121.217 174.297 61.8523 H 0 **** 0.053
24606 H76 119.851 174.979 62.7412 H 0 **** 0.053
24607 H77 121.004 172.146 63.1289 H 0 **** 0.053
24608 H78 121.26 173.506 64.2138 H 0 **** 0.053
24609 H79 114.669 172.125 63.8006 H 0 **** 0.1268
24610 H80 116.811 173.23 60.3064 H 0 **** 0.1268
24611 H81 110.205 169.151 67.9243 H 0 **** 0.053
24612 H82 109.85 170.712 68.7658 H 0 **** 0.053
24613 H83 113.49 172.411 65.3484 H 0 **** 0.1268
24614 H84 108.232 170.302 67.0649 H 0 **** 0.1268
24615 H85 107.068 172.146 63.4149 H 0 **** 0.1268
24616 H86 111.144 173.989 61.628 H 0 **** 0.1268
24617 H87 112.886 173.442 63.293 H 0 **** 0.1268
24618 H88 112.683 166.449 77.0561 H 0 **** 0.41
24619 H89 115.934 167.334 77.8457 H 0 **** 0.053
24620 H90 117.232 167.952 76.8242 H 0 **** 0.053
24621 H91 116.761 166.233 76.7232 H 0 **** 0.053
24622 H92 110.327 169.19 70.0913 H 0 **** 0.41
24623 H93 106.103 169.658 65.8529 H 0 **** 0.053
24624 H94 104.074 170.608 64.7654 H 0 **** 0.053
24625 H95 105.37 170.415 63.5597 H 0 **** 0.053
24626 H96 104.992 172.032 64.2306 H 0 **** 0.053
24627 H97 113.789 172.358 61.8141 H 0 **** 0.41
24628 H98 120.295 172.241 67.129 H 0 **** 0.41
24629 H99 107.795 173.098 61.9828 H 0 **** 0.41
24630 H100 114.977 172.797 66.3302 H 0 **** 0.053
24631 H101 118.376 172.755 68.211 H 0 **** 0.053
24632 H102 105.75 171.258 66.506 H 0 **** 0.053
24633 C1 125.222 134.915 83.4472 C.ar 0 **** 0.042
24634 C2 126.132 133.879 83.5341 C.ar 0 **** -0.1268
24635 C3 126.422 133.097 82.4277 C.ar 0 **** 0
24636 C4 125.803 133.334 81.1994 C.ar 0 **** 0
24637 C5 124.894 134.394 81.1186 C.ar 0 **** -0.1268
24638 C6 124.588 135.174 82.2238 C.ar 0 **** 0
24639 C7 126.316 132.348 80.2609 C.ar 0 **** 0
24640 C8 127.231 131.56 80.9372 C.ar 0 **** 0
24641 C9 127.385 131.951 82.367 C.3 0 **** -0.106
24642 C10 127.895 130.536 80.2705 C.ar 0 **** 0
24643 C11 127.65 130.29 78.9034 C.ar 0 **** 0
24644 C12 126.694 131.125 78.263 C.ar 0 **** 0
24645 C13 126.015 132.146 78.9372 C.ar 0 **** 0
24646 C14 125.015 133.002 78.2125 C.3 0 **** -0.106
24647 C15 124.312 132.207 77.1114 C.3 0 **** -0.106
24648 C16 125.362 131.756 76.1336 C.3 0 **** -0.106
24649 C17 126.404 130.87 76.7848 C.ar 0 **** 0
24650 C18 127.049 129.914 76.0686 C.ar 0 **** 0
24651 C19 127.994 129.122 76.6585 C.ar 0 **** 0
24652 C20 128.338 129.243 78.1953 C.ar 0 **** 0
24653 C21 129.243 128.415 78.9717 C.ar 0 **** 0
24654 C22 129.446 128.756 80.3134 C.ar 0 **** 0
24655 C23 128.81 129.757 80.9605 C.ar 0 **** 0.042
24656 C24 128.728 128.087 75.818 C.3 0 **** -0.106
24657 C25 128.525 128.172 74.2769 C.ar 0 **** 0
24658 C26 127.54 128.968 73.7472 C.ar 0 **** 0
24659 C27 126.648 129.81 74.5999 C.3 0 **** -0.106
24660 C28 127.324 129.004 72.3712 C.ar 0 **** 0.042
24661 C29 128.07 128.24 71.4906 C.ar 0 **** 0
24662 C30 129.067 127.45 72.0423 C.ar 0 **** 0
24663 C31 129.303 127.404 73.414 C.ar 0 **** 0
24664 C32 129.967 126.564 71.1658 C.ar 0 **** 0
24665 C33 129.659 126.65 69.6684 C.3 0 **** -0.106
24666 C34 128.185 126.932 69.3867 C.3 0 **** -0.106
24667 C35 127.829 128.284 70.0005 C.3 0 **** -0.106
24668 C36 130.42 126.508 73.91 C.ar 0 **** -0.1268
24669 C37 131.145 125.769 73.0297 C.ar 0 **** 0.0265
24670 C38 130.937 125.785 71.7057 C.ar 0 **** -0.1268
24671 C39 130.412 127.928 81.0777 C.3 0 **** -0.106
24672 C40 130.744 126.96 79.9896 C.ar 0 **** 0
24673 C41 130.085 127.233 78.7895 C.ar 0 **** 0
24674 C42 130.328 126.318 77.744 C.ar 0 **** -0.1268
24675 C43 131.215 125.231 77.8941 C.ar 0 **** 0
24676 C44 131.879 125 79.1176 C.ar 0 **** 0
24677 C45 131.623 125.882 80.1799 C.ar 0 **** 0
24678 C46 132.249 125.649 81.4232 C.ar 0 **** -0.1268
24679 C47 133.11 124.583 81.6366 C.ar 0 **** 0
24680 C48 133.35 123.727 80.577 C.ar 0 **** -0.1268
24681 C49 132.755 123.906 79.3166 C.ar 0 **** 0
24682 C50 132.985 123.028 78.2422 C.ar 0 **** 0.042
24683 C51 132.356 123.23 77.0295 C.ar 0 **** -0.1268
24684 C52 131.483 124.3 76.853 C.ar 0 **** -0.1268
24685 O53 124.933 135.694 84.5421 O.3 0 **** -0.452
24686 C54 123.597 136.321 82.1043 C.3 0 **** -0.159
24687 O55 129.068 129.98 82.2609 O.3 0 **** -0.452
24688 C56 133.7 124.451 83.0367 C.3 0 **** -0.106
24689 C57 134.757 123.353 83.1258 C.3 0 **** -0.159
24690 O58 132.121 124.985 73.5173 O.3 0 **** -0.4365
24691 O59 126.356 129.792 71.8103 O.3 0 **** -0.452
24692 O60 133.796 121.953 78.3001 O.3 0 **** -0.452
24693 H61 126.66 133.646 84.4872 H 0 **** 0.1268
24694 H62 124.378 134.683 80.1932 H 0 **** 0.1268
24695 H63 127.079 131.16 83.0758 H 0 **** 0.053
24696 H64 128.402 132.3 82.6231 H 0 **** 0.053
24697 H65 124.238 133.365 78.8798 H 0 **** 0.053
24698 H66 125.514 133.882 77.7495 H 0 **** 0.053
24699 H67 123.755 131.343 77.549 H 0 **** 0.053
24700 H68 123.536 132.849 76.5979 H 0 **** 0.053
24701 H69 124.86 131.234 75.3095 H 0 **** 0.053
24702 H70 125.848 132.647 75.6982 H 0 **** 0.053
24703 H71 129.815 128.189 76.0185 H 0 **** 0.053
24704 H72 126.656 130.826 74.1935 H 0 **** 0.053
24705 H73 130.279 127.454 69.2237 H 0 **** 0.053
24706 H74 129.984 125.709 69.2076 H 0 **** 0.053
24707 H75 128.006 126.946 68.3046 H 0 **** 0.053
24708 H76 127.553 126.137 69.8085 H 0 **** 0.053
24709 H77 128.451 129.075 69.5595 H 0 **** 0.053
24710 H78 126.795 128.534 69.7933 H 0 **** 0.053
24711 H79 130.619 126.494 74.9645 H 0 **** 0.1268
24712 H80 131.534 125.194 71.0287 H 0 **** 0.1268
24713 H81 131.307 128.486 81.3951 H 0 **** 0.053
24714 H82 129.958 127.411 81.9378 H 0 **** 0.053
24715 H83 129.857 126.346 76.7723 H 0 **** 0.1268
24716 H84 132.057 126.335 82.2681 H 0 **** 0.1268
24717 H85 134.023 122.89 80.7395 H 0 **** 0.1268
24718 H86 132.517 122.553 76.1743 H 0 **** 0.1268
24719 H87 130.947 124.435 75.8709 H 0 **** 0.1268
24720 H88 125.449 135.381 85.272 H 0 **** 0.41
24721 H89 123.039 136.455 83.0382 H 0 **** 0.053
24722 H90 122.857 136.144 81.3116 H 0 **** 0.053
24723 H91 124.122 137.265 81.8866 H 0 **** 0.053
24724 H92 129.723 129.372 82.5754 H 0 **** 0.41
24725 H93 134.163 125.401 83.3289 H 0 **** 0.053
24726 H94 135.205 123.301 84.1359 H 0 **** 0.053
24727 H95 135.568 123.551 82.4101 H 0 **** 0.053
24728 H96 134.348 122.354 82.8963 H 0 **** 0.053
24729 H97 132.239 125.124 74.4433 H 0 **** 0.41
24730 H98 125.891 130.264 72.4818 H 0 **** 0.41
24731 H99 134.169 121.892 79.1698 H 0 **** 0.41
24732 H100 128.328 127.098 76.1216 H 0 **** 0.053
24733 H101 125.627 129.413 74.5602 H 0 **** 0.053
24734 H102 132.903 124.238 83.7581 H 0 **** 0.053
24735 C1 133.847 123.3 50.6564 C.ar 0 **** 0.042
24736 C2 133.082 122.346 51.3005 C.ar 0 **** -0.1268
24737 C3 133.135 121.017 50.9125 C.ar 0 **** 0
24738 C4 133.959 120.608 49.8633 C.ar 0 **** 0
24739 C5 134.739 121.578 49.2275 C.ar 0 **** -0.1268
24740 C6 134.683 122.913 49.6004 C.ar 0 **** 0
24741 C7 133.779 119.172 49.7086 C.ar 0 **** 0
24742 C8 132.872 118.756 50.6673 C.ar 0 **** 0
24743 C9 132.374 119.876 51.5156 C.3 0 **** -0.106
24744 C10 132.523 117.413 50.7598 C.ar 0 **** 0
24745 C11 133.087 116.461 49.8849 C.ar 0 **** 0
24746 C12 134.006 116.948 48.915 C.ar 0 **** 0
24747 C13 134.347 118.301 48.8128 C.ar 0 **** 0
24748 C14 135.326 118.763 47.7702 C.3 0 **** -0.106
24749 C15 135.236 117.895 46.5149 C.3 0 **** -0.106
24750 C16 135.578 116.484 46.9103 C.3 0 **** -0.106
24751 C17 134.623 115.937 47.9502 C.ar 0 **** 0
24752 C18 134.356 114.607 48.017 C.ar 0 **** 0
24753 C19 133.499 114.116 48.9619 C.ar 0 **** 0
24754 C20 132.747 115.067 49.9749 C.ar 0 **** 0
24755 C21 131.747 114.7 50.9629 C.ar 0 **** 0
24756 C22 131.268 115.709 51.8062 C.ar 0 **** 0
24757 C23 131.616 117.012 51.7266 C.ar 0 **** 0.042
24758 C24 133.251 112.617 49.0346 C.3 0 **** -0.106
24759 C25 134.19 111.714 48.1819 C.ar 0 **** 0
24760 C26 135.009 112.267 47.2285 C.ar 0 **** 0
24761 C27 135.073 113.74 46.9865 C.3 0 **** -0.106
24762 C28 135.809 111.455 46.4271 C.ar 0 **** 0.042
24763 C29 135.806 110.075 46.5449 C.ar 0 **** 0
24764 C30 134.982 109.536 47.5206 C.ar 0 **** 0
24765 C31 134.177 110.33 48.3336 C.ar 0 **** 0
24766 C32 134.896 108.019 47.7503 C.ar 0 **** 0
24767 C33 135.793 107.193 46.8212 C.3 0 **** -0.106
24768 C34 135.993 107.853 45.4587 C.3 0 **** -0.106
24769 C35 136.677 109.202 45.6733 C.3 0 **** -0.106
24770 C36 133.313 109.637 49.3675 C.ar 0 **** -0.1268
24771 C37 133.326 108.282 49.4713 C.ar 0 **** 0.0265
24772 C38 134.082 107.49 48.6971 C.ar 0 **** -0.1268
24773 C39 130.284 115.306 52.8408 C.3 0 **** -0.106
24774 C40 130.181 113.864 52.4645 C.ar 0 **** 0
24775 C41 131.012 113.513 51.399 C.ar 0 **** 0
24776 C42 130.917 112.172 50.973 C.ar 0 **** -0.1268
24777 C43 130.071 111.244 51.6156 C.ar 0 **** 0
24778 C44 129.26 111.632 52.7032 C.ar 0 **** 0
24779 C45 129.318 112.971 53.1193 C.ar 0 **** 0
24780 C46 128.489 113.388 54.1844 C.ar 0 **** -0.1268
24781 C47 127.625 112.524 54.839 C.ar 0 **** 0
24782 C48 127.581 111.21 54.4117 C.ar 0 **** -0.1268
24783 C49 128.379 110.736 53.3566 C.ar 0 **** 0
24784 C50 128.329 109.403 52.9142 C.ar 0 **** 0.042
24785 C51 129.115 108.989 51.8566 C.ar 0 **** -0.1268
24786 C52 129.963 109.885 51.2106 C.ar 0 **** -0.1268
24787 O53 133.798 124.619 51.0393 O.3 0 **** -0.452
24788 C54 135.546 123.946 48.8918 C.3 0 **** -0.159
24789 O55 131.077 117.899 52.5804 O.3 0 **** -0.452
24790 C56 126.785 113.117 55.9656 C.3 0 **** -0.106
24791 C57 125.997 112.057 56.7439 C.3 0 **** -0.159
24792 O58 132.539 107.713 50.3991 O.3 0 **** -0.4365
24793 O59 136.637 111.973 45.4694 O.3 0 **** -0.452
24794 O60 127.54 108.453 53.4537 O.3 0 **** -0.452
24795 H61 132.408 122.613 52.1471 H 0 **** 0.1268
24796 H62 135.442 121.356 48.4131 H 0 **** 0.1268
24797 H63 131.287 120.052 51.4206 H 0 **** 0.053
24798 H64 132.636 119.771 52.5844 H 0 **** 0.053
24799 H65 135.128 119.784 47.4584 H 0 **** 0.053
24800 H66 136.366 118.713 48.1605 H 0 **** 0.053
24801 H67 134.215 117.963 46.0654 H 0 **** 0.053
24802 H68 135.949 118.273 45.7239 H 0 **** 0.053
24803 H69 135.573 115.864 46.005 H 0 **** 0.053
24804 H70 136.61 116.466 47.3031 H 0 **** 0.053
24805 H71 133.356 112.302 50.0941 H 0 **** 0.053
24806 H72 136.127 114.036 46.9977 H 0 **** 0.053
24807 H73 136.778 107.055 47.3116 H 0 **** 0.053
24808 H74 135.34 106.197 46.7232 H 0 **** 0.053
24809 H75 136.61 107.212 44.8174 H 0 **** 0.053
24810 H76 135.027 107.984 44.9496 H 0 **** 0.053
24811 H77 137.65 109.061 46.164 H 0 **** 0.053
24812 H78 136.863 109.687 44.7216 H 0 **** 0.053
24813 H79 132.712 110.252 50.0097 H 0 **** 0.1268
24814 H80 134.076 106.417 48.8046 H 0 **** 0.1268
24815 H81 130.663 115.42 53.8687 H 0 **** 0.053
24816 H82 129.31 115.81 52.7342 H 0 **** 0.053
24817 H83 131.442 111.751 50.1283 H 0 **** 0.1268
24818 H84 128.524 114.441 54.5194 H 0 **** 0.1268
24819 H85 126.901 110.531 54.9184 H 0 **** 0.1268
24820 H86 129.086 107.951 51.4868 H 0 **** 0.1268
24821 H87 130.571 109.547 50.3242 H 0 **** 0.1268
24822 H88 133.188 124.694 51.7606 H 0 **** 0.41
24823 H89 135.038 124.917 48.8482 H 0 **** 0.053
24824 H90 135.769 123.654 47.856 H 0 **** 0.053
24825 H91 136.499 124.087 49.4268 H 0 **** 0.053
24826 H92 130.476 117.469 53.1723 H 0 **** 0.41
24827 H93 127.436 113.65 56.6663 H 0 **** 0.053
24828 H94 125.407 112.516 57.5614 H 0 **** 0.053
24829 H95 126.667 111.308 57.2086 H 0 **** 0.053
24830 H96 125.28 111.521 56.0944 H 0 **** 0.053
24831 H97 132.119 108.366 50.9347 H 0 **** 0.41
24832 H98 136.577 112.914 45.4605 H 0 **** 0.41
24833 H99 127.026 108.83 54.1559 H 0 **** 0.41
24834 H100 132.228 112.45 48.6386 H 0 **** 0.053
24835 H101 134.645 113.966 46.0032 H 0 **** 0.053
24836 H102 126.082 113.849 55.5537 H 0 **** 0.053
24837 C1 141.625 128.059 95.9502 C.ar 0 **** 0.042
24838 C2 141.323 127.259 94.8642 C.ar 0 **** -0.1268
24839 C3 141.035 127.82 93.6308 C.ar 0 **** 0
24840 C4 141.041 129.204 93.4521 C.ar 0 **** 0
24841 C5 141.36 130.004 94.5532 C.ar 0 **** -0.1268
24842 C6 141.637 129.452 95.7951 C.ar 0 **** 0
24843 C7 140.696 129.461 92.0621 C.ar 0 **** 0
24844 C8 140.508 128.237 91.4426 C.ar 0 **** 0
24845 C9 140.698 127.086 92.3687 C.3 0 **** -0.106
24846 C10 140.183 128.184 90.0917 C.ar 0 **** 0
24847 C11 140.042 129.368 89.3376 C.ar 0 **** 0
24848 C12 140.238 130.595 90.0286 C.ar 0 **** 0
24849 C13 140.552 130.649 91.3912 C.ar 0 **** 0
24850 C14 140.751 131.974 92.0736 C.3 0 **** -0.106
24851 C15 139.868 133.051 91.4434 C.3 0 **** -0.106
24852 C16 140.271 133.184 89.9999 C.3 0 **** -0.106
24853 C17 140.083 131.891 89.2349 C.ar 0 **** 0
24854 C18 139.808 131.904 87.9052 C.ar 0 **** 0
24855 C19 139.647 130.734 87.2169 C.ar 0 **** 0
24856 C20 139.719 129.33 87.9366 C.ar 0 **** 0
24857 C21 139.478 128.021 87.3568 C.ar 0 **** 0
24858 C22 139.672 126.903 88.1752 C.ar 0 **** 0
24859 C23 140.001 126.952 89.4848 C.ar 0 **** 0.042
24860 C24 139.379 130.783 85.7198 C.3 0 **** -0.106
24861 C25 139.555 132.165 85.0259 C.ar 0 **** 0
24862 C26 139.686 133.308 85.7752 C.ar 0 **** 0
24863 C27 139.705 133.287 87.2687 C.3 0 **** -0.106
24864 C28 139.79 134.551 85.1551 C.ar 0 **** 0.042
24865 C29 139.752 134.691 83.7784 C.ar 0 **** 0
24866 C30 139.63 133.525 83.0383 C.ar 0 **** 0
24867 C31 139.53 132.272 83.638 C.ar 0 **** 0
24868 C32 139.584 133.55 81.5019 C.ar 0 **** 0
24869 C33 139.688 134.954 80.8959 C.3 0 **** -0.106
24870 C34 139.089 136.03 81.7985 C.3 0 **** -0.106
24871 C35 139.864 136.042 83.1136 C.3 0 **** -0.106
24872 C36 139.401 131.063 82.7342 C.ar 0 **** -0.1268
24873 C37 139.371 131.219 81.3844 C.ar 0 **** 0.0265
24874 C38 139.456 132.411 80.7775 C.ar 0 **** -0.1268
24875 C39 139.468 125.572 87.5523 C.3 0 **** -0.106
24876 C40 139.053 126.05 86.1992 C.ar 0 **** 0
24877 C41 139.06 127.442 86.0808 C.ar 0 **** 0
24878 C42 138.628 127.945 84.8359 C.ar 0 **** -0.1268
24879 C43 138.265 127.094 83.7721 C.ar 0 **** 0
24880 C44 138.298 125.692 83.9225 C.ar 0 **** 0
24881 C45 138.685 125.172 85.1682 C.ar 0 **** 0
24882 C46 138.686 123.772 85.3531 C.ar 0 **** -0.1268
24883 C47 138.331 122.888 84.3475 C.ar 0 **** 0
24884 C48 137.973 123.419 83.1232 C.ar 0 **** -0.1268
24885 C49 137.931 124.804 82.8827 C.ar 0 **** 0
24886 C50 137.513 125.347 81.6532 C.ar 0 **** 0.042
24887 C51 137.472 126.715 81.4739 C.ar 0 **** -0.1268
24888 C52 137.834 127.577 82.5052 C.ar 0 **** -0.1268
24889 O53 141.913 127.508 97.1759 O.3 0 **** -0.452
24890 C54 141.984 130.348 96.974 C.3 0 **** -0.159
24891 O55 140.145 125.81 90.1793 O.3 0 **** -0.452
24892 C56 138.362 121.403 84.6906 C.3 0 **** -0.106
24893 C57 138.111 120.502 83.4757 C.3 0 **** -0.159
24894 O58 139.248 130.118 80.6245 O.3 0 **** -0.4365
24895 O59 139.929 135.709 85.8716 O.3 0 **** -0.452
24896 O60 137.126 124.614 80.5902 O.3 0 **** -0.452
24897 H61 141.305 126.148 94.9467 H 0 **** 0.1268
24898 H62 141.421 131.1 94.5114 H 0 **** 0.1268
24899 H63 139.784 126.481 92.5138 H 0 **** 0.053
24900 H64 141.536 126.423 92.0837 H 0 **** 0.053
24901 H65 140.485 131.927 93.1257 H 0 **** 0.053
24902 H66 141.812 132.298 91.9978 H 0 **** 0.053
24903 H67 138.789 132.781 91.5492 H 0 **** 0.053
24904 H68 139.997 134.033 91.9874 H 0 **** 0.053
24905 H69 139.682 133.995 89.5544 H 0 **** 0.053
24906 H70 141.329 133.496 89.9546 H 0 **** 0.053
24907 H71 140.07 130.069 85.2234 H 0 **** 0.053
24908 H72 140.578 133.858 87.6019 H 0 **** 0.053
24909 H73 140.757 135.182 80.7117 H 0 **** 0.053
24910 H74 139.194 134.929 79.9147 H 0 **** 0.053
24911 H75 139.155 137.009 81.3083 H 0 **** 0.053
24912 H76 138.022 135.83 81.9776 H 0 **** 0.053
24913 H77 140.924 136.263 82.9257 H 0 **** 0.053
24914 H78 139.485 136.817 83.7697 H 0 **** 0.053
24915 H79 139.35 130.096 83.1971 H 0 **** 0.1268
24916 H80 139.436 132.505 79.703 H 0 **** 0.1268
24917 H81 140.391 124.974 87.4929 H 0 **** 0.053
24918 H82 138.663 124.988 88.0252 H 0 **** 0.053
24919 H83 138.516 128.992 84.5952 H 0 **** 0.1268
24920 H84 138.988 123.352 86.3294 H 0 **** 0.1268
24921 H85 137.679 122.728 82.3373 H 0 **** 0.1268
24922 H86 137.149 127.162 80.5191 H 0 **** 0.1268
24923 H87 137.769 128.692 82.3577 H 0 **** 0.1268
24924 H88 141.853 126.566 97.1014 H 0 **** 0.41
24925 H89 141.625 129.915 97.9145 H 0 **** 0.053
24926 H90 141.525 131.343 96.8836 H 0 **** 0.053
24927 H91 143.075 130.475 97.0559 H 0 **** 0.053
24928 H92 139.981 125.061 89.6231 H 0 **** 0.41
24929 H93 139.338 121.148 85.1162 H 0 **** 0.053
24930 H94 138.158 119.431 83.7541 H 0 **** 0.053
24931 H95 138.868 120.664 82.6836 H 0 **** 0.053
24932 H96 137.111 120.675 83.0371 H 0 **** 0.053
24933 H97 139.287 129.335 81.1491 H 0 **** 0.41
24934 H98 139.934 135.522 86.7964 H 0 **** 0.41
24935 H99 137.186 123.693 80.8077 H 0 **** 0.41
24936 H100 138.312 130.51 85.5845 H 0 **** 0.053
24937 H101 138.795 133.763 87.6505 H 0 **** 0.053
24938 H102 137.607 121.184 85.4537 H 0 **** 0.053
24939 C1 157.875 132.827 22.962 C.ar 0 **** 0.042
24940 C2 158.368 132.019 21.9551 C.ar 0 **** -0.1268
24941 C3 159.665 131.536 22.0071 C.ar 0 **** 0
24942 C4 160.507 131.853 23.0739 C.ar 0 **** 0
24943 C5 159.994 132.661 24.0939 C.ar 0 **** -0.1268
24944 C6 158.701 133.159 24.0447 C.ar 0 **** 0
24945 C7 161.784 131.202 22.8237 C.ar 0 **** 0
24946 C8 161.674 130.505 21.6331 C.ar 0 **** 0
24947 C9 160.333 130.65 21.0002 C.3 0 **** -0.106
24948 C10 162.753 129.769 21.1558 C.ar 0 **** 0
24949 C11 163.966 129.72 21.8746 C.ar 0 **** 0
24950 C12 164.023 130.462 23.086 C.ar 0 **** 0
24951 C13 162.942 131.214 23.5596 C.ar 0 **** 0
24952 C14 163.054 131.979 24.8483 C.3 0 **** -0.106
24953 C15 164.487 132.465 25.0721 C.3 0 **** -0.106
24954 C16 165.373 131.251 25.15 C.3 0 **** -0.106
24955 C17 165.33 130.432 23.8774 C.ar 0 **** 0
24956 C18 166.403 129.699 23.4855 C.ar 0 **** 0
24957 C19 166.357 128.955 22.3402 C.ar 0 **** 0
24958 C20 165.088 128.954 21.4015 C.ar 0 **** 0
24959 C21 164.931 128.29 20.1191 C.ar 0 **** 0
24960 C22 163.681 128.369 19.4956 C.ar 0 **** 0
24961 C23 162.628 129.074 19.9638 C.ar 0 **** 0.042
24962 C24 167.563 128.113 21.9505 C.3 0 **** -0.106
24963 C25 168.683 127.964 23.0218 C.ar 0 **** 0
24964 C26 168.687 128.761 24.1399 C.ar 0 **** 0
24965 C27 167.619 129.771 24.4055 C.3 0 **** -0.106
24966 C28 169.717 128.665 25.0726 C.ar 0 **** 0.042
24967 C29 170.774 127.786 24.9108 C.ar 0 **** 0
24968 C30 170.747 126.981 23.7822 C.ar 0 **** 0
24969 C31 169.725 127.059 22.8403 C.ar 0 **** 0
24970 C32 171.861 125.961 23.4966 C.ar 0 **** 0
24971 C33 172.965 125.925 24.5585 C.3 0 **** -0.106
24972 C34 173.183 127.282 25.2254 C.3 0 **** -0.106
24973 C35 171.888 127.687 25.9261 C.3 0 **** -0.106
24974 C36 169.793 126.133 21.6429 C.ar 0 **** -0.1268
24975 C37 170.837 125.273 21.503 C.ar 0 **** 0.0265
24976 C38 171.84 125.181 22.3874 C.ar 0 **** -0.1268
24977 C39 163.526 127.645 18.21 C.3 0 **** -0.106
24978 C40 164.926 127.136 18.1006 C.ar 0 **** 0
24979 C41 165.729 127.498 19.1841 C.ar 0 **** 0
24980 C42 167.075 127.082 19.1056 C.ar 0 **** -0.1268
24981 C43 167.556 126.312 18.0261 C.ar 0 **** 0
24982 C44 166.708 125.951 16.9579 C.ar 0 **** 0
24983 C45 165.374 126.385 17.0027 C.ar 0 **** 0
24984 C46 164.517 126.06 15.9283 C.ar 0 **** -0.1268
24985 C47 164.941 125.325 14.8318 C.ar 0 **** 0
24986 C48 166.259 124.91 14.8057 C.ar 0 **** -0.1268
24987 C49 167.16 125.204 15.843 C.ar 0 **** 0
24988 C50 168.504 124.792 15.8126 C.ar 0 **** 0.042
24989 C51 169.358 125.123 16.8468 C.ar 0 **** -0.1268
24990 C52 168.904 125.871 17.9295 C.ar 0 **** -0.1268
24991 O53 156.588 133.307 22.9152 O.3 0 **** -0.452
24992 C54 158.17 134.032 25.1711 C.3 0 **** -0.159
24993 O55 161.478 129.096 19.2682 O.3 0 **** -0.452
24994 C56 163.907 125.058 13.743 C.3 0 **** -0.106
24995 C57 164.412 124.093 12.6639 C.3 0 **** -0.159
24996 O58 170.86 124.48 20.4194 O.3 0 **** -0.4365
24997 O59 169.748 129.438 26.2008 O.3 0 **** -0.452
24998 O60 169.057 124.077 14.8136 O.3 0 **** -0.452
24999 H61 157.741 131.729 21.0809 H 0 **** 0.1268
25000 H62 160.563 132.942 24.9908 H 0 **** 0.1268
25001 H63 160.362 131.15 20.0148 H 0 **** 0.053
25002 H64 159.78 129.697 20.9121 H 0 **** 0.053
25003 H65 162.422 132.862 24.8481 H 0 **** 0.053
25004 H66 162.759 131.341 25.7101 H 0 **** 0.053
25005 H67 164.799 133.154 24.2494 H 0 **** 0.053
25006 H68 164.552 133.07 26.0243 H 0 **** 0.053
25007 H69 166.394 131.587 25.3689 H 0 **** 0.053
25008 H70 165.051 130.632 26.0056 H 0 **** 0.053
25009 H71 167.204 127.093 21.6987 H 0 **** 0.053
25010 H72 167.256 129.615 25.4267 H 0 **** 0.053
25011 H73 172.691 125.176 25.3294 H 0 **** 0.053
25012 H74 173.881 125.563 24.0732 H 0 **** 0.053
25013 H75 174.003 127.215 25.9506 H 0 **** 0.053
25014 H76 173.473 128.035 24.4783 H 0 **** 0.053
25015 H77 171.618 126.94 26.6843 H 0 **** 0.053
25016 H78 172.015 128.634 26.4383 H 0 **** 0.053
25017 H79 168.991 126.174 20.9323 H 0 **** 0.1268
25018 H80 172.652 124.483 22.2563 H 0 **** 0.1268
25019 H81 162.807 126.813 18.2639 H 0 **** 0.053
25020 H82 163.282 128.307 17.3634 H 0 **** 0.053
25021 H83 167.842 127.324 19.8261 H 0 **** 0.1268
25022 H84 163.464 126.396 15.9506 H 0 **** 0.1268
25023 H85 166.597 124.338 13.9454 H 0 **** 0.1268
25024 H86 170.416 124.814 16.8419 H 0 **** 0.1268
25025 H87 169.618 126.168 18.7491 H 0 **** 0.1268
25026 H88 156.181 132.983 22.1232 H 0 **** 0.41
25027 H89 157.46 134.775 24.7892 H 0 **** 0.053
25028 H90 158.974 134.587 25.6745 H 0 **** 0.053
25029 H91 157.646 133.419 25.9222 H 0 **** 0.053
25030 H92 161.555 128.572 18.4831 H 0 **** 0.41
25031 H93 163.003 124.634 14.1915 H 0 **** 0.053
25032 H94 163.636 123.911 11.894 H 0 **** 0.053
25033 H95 164.684 123.108 13.0896 H 0 **** 0.053
25034 H96 165.297 124.496 12.1362 H 0 **** 0.053
25035 H97 170.058 124.552 19.9267 H 0 **** 0.41
25036 H98 169 130.013 26.224 H 0 **** 0.41
25037 H99 168.4 123.898 14.1523 H 0 **** 0.41
25038 H100 168.037 128.625 21.0878 H 0 **** 0.053
25039 H101 168.042 130.779 24.3224 H 0 **** 0.053
25040 H102 163.622 126.003 13.2668 H 0 **** 0.053
25041 C1 156.863 127.119 52.4746 C.ar 0 **** 0.042
25042 C2 155.96 127.124 53.5211 C.ar 0 **** -0.1268
25043 C3 154.682 126.617 53.354 C.ar 0 **** 0
25044 C4 154.272 126.091 52.128 C.ar 0 **** 0
25045 C5 155.198 126.079 51.08 C.ar 0 **** -0.1268
25046 C6 156.476 126.595 51.2337 C.ar 0 **** 0
25047 C7 152.893 125.655 52.2849 C.ar 0 **** 0
25048 C8 152.516 125.914 53.5911 C.ar 0 **** 0
25049 C9 153.602 126.549 54.3906 C.3 0 **** -0.106
25050 C10 151.239 125.579 54.0265 C.ar 0 **** 0
25051 C11 150.315 124.972 53.1496 C.ar 0 **** 0
25052 C12 150.755 124.738 51.8179 C.ar 0 **** 0
25053 C13 152.035 125.088 51.3756 C.ar 0 **** 0
25054 C14 152.451 124.816 49.9572 C.3 0 **** -0.106
25055 C15 151.256 124.916 49.0094 C.3 0 **** -0.106
25056 C16 150.253 123.876 49.4285 C.3 0 **** -0.106
25057 C17 149.769 124.09 50.8471 C.ar 0 **** 0
25058 C18 148.523 123.702 51.223 C.ar 0 **** 0
25059 C19 148.094 123.89 52.5065 C.ar 0 **** 0
25060 C20 148.994 124.608 53.5872 C.ar 0 **** 0
25061 C21 148.639 124.956 54.9516 C.ar 0 **** 0
25062 C22 149.631 125.527 55.7555 C.ar 0 **** 0
25063 C23 150.877 125.841 55.3379 C.ar 0 **** 0.042
25064 C24 146.707 123.408 52.9051 C.3 0 **** -0.106
25065 C25 145.963 122.504 51.8793 C.ar 0 **** 0
25066 C26 146.432 122.376 50.5951 C.ar 0 **** 0
25067 C27 147.679 123.055 50.129 C.3 0 **** -0.106
25068 C28 145.738 121.61 49.6615 C.ar 0 **** 0.042
25069 C29 144.554 120.964 49.9759 C.ar 0 **** 0
25070 C30 144.102 121.094 51.2799 C.ar 0 **** 0
25071 C31 144.783 121.851 52.2296 C.ar 0 **** 0
25072 C32 142.805 120.417 51.7511 C.ar 0 **** 0
25073 C33 142.091 119.607 50.6648 C.3 0 **** -0.106
25074 C34 142.312 120.177 49.2655 C.3 0 **** -0.106
25075 C35 143.807 120.136 48.9585 C.3 0 **** -0.106
25076 C36 144.2 121.926 53.6264 C.ar 0 **** -0.1268
25077 C37 143.04 121.281 53.918 C.ar 0 **** 0.0265
25078 C38 142.357 120.553 53.0238 C.ar 0 **** -0.1268
25079 C39 149.264 125.831 57.1604 C.3 0 **** -0.106
25080 C40 147.835 125.4 57.0878 C.ar 0 **** 0
25081 C41 147.475 124.899 55.8353 C.ar 0 **** 0
25082 C42 146.122 124.523 55.7003 C.ar 0 **** -0.1268
25083 C43 145.213 124.606 56.776 C.ar 0 **** 0
25084 C44 145.62 125.1 58.0337 C.ar 0 **** 0
25085 C45 146.956 125.51 58.1767 C.ar 0 **** 0
25086 C46 147.375 126.038 59.4173 C.ar 0 **** -0.1268
25087 C47 146.521 126.162 60.5024 C.ar 0 **** 0
25088 C48 145.21 125.755 60.3395 C.ar 0 **** -0.1268
25089 C49 144.732 125.224 59.1295 C.ar 0 **** 0
25090 C50 143.396 124.82 58.959 C.ar 0 **** 0.042
25091 C51 142.968 124.326 57.7429 C.ar 0 **** -0.1268
25092 C52 143.847 124.226 56.6679 C.ar 0 **** -0.1268
25093 O53 158.134 127.618 52.6367 O.3 0 **** -0.452
25094 C54 157.461 126.565 50.0758 C.3 0 **** -0.159
25095 O55 151.745 126.405 56.1959 O.3 0 **** -0.452
25096 C56 147.111 126.756 61.7765 C.3 0 **** -0.106
25097 C57 146.15 126.689 62.9683 C.3 0 **** -0.159
25098 O58 142.558 121.383 55.1676 O.3 0 **** -0.4365
25099 O59 146.182 121.456 48.3763 O.3 0 **** -0.452
25100 O60 142.455 124.882 59.9213 O.3 0 **** -0.452
25101 H61 156.231 127.527 54.5236 H 0 **** 0.1268
25102 H62 154.986 125.66 50.0867 H 0 **** 0.1268
25103 H63 153.352 127.565 54.7464 H 0 **** 0.053
25104 H64 153.939 125.933 55.2452 H 0 **** 0.053
25105 H65 153.187 125.536 49.6095 H 0 **** 0.053
25106 H66 152.891 123.799 49.8656 H 0 **** 0.053
25107 H67 150.821 125.945 49.0375 H 0 **** 0.053
25108 H68 151.585 124.748 47.9418 H 0 **** 0.053
25109 H69 149.417 123.902 48.7187 H 0 **** 0.053
25110 H70 150.718 122.878 49.338 H 0 **** 0.053
25111 H71 146.801 122.833 53.8506 H 0 **** 0.053
25112 H72 148.308 122.304 49.6415 H 0 **** 0.053
25113 H73 142.464 118.563 50.6995 H 0 **** 0.053
25114 H74 141.023 119.573 50.923 H 0 **** 0.053
25115 H75 141.755 119.586 48.5279 H 0 **** 0.053
25116 H76 141.931 121.207 49.2071 H 0 **** 0.053
25117 H77 144.173 119.101 48.9994 H 0 **** 0.053
25118 H78 143.998 120.506 47.9577 H 0 **** 0.053
25119 H79 144.74 122.489 54.3639 H 0 **** 0.1268
25120 H80 141.442 120.044 53.2824 H 0 **** 0.1268
25121 H81 149.82 125.229 57.8957 H 0 **** 0.053
25122 H82 149.338 126.902 57.4084 H 0 **** 0.053
25123 H83 145.663 124.173 54.7871 H 0 **** 0.1268
25124 H84 148.423 126.366 59.5427 H 0 **** 0.1268
25125 H85 144.536 125.856 61.1863 H 0 **** 0.1268
25126 H86 141.924 124.009 57.5844 H 0 **** 0.1268
25127 H87 143.478 123.857 55.6694 H 0 **** 0.1268
25128 H88 158.216 127.928 53.5285 H 0 **** 0.41
25129 H89 158.129 127.433 50.1081 H 0 **** 0.053
25130 H90 156.952 126.589 49.1023 H 0 **** 0.053
25131 H91 158.085 125.657 50.1216 H 0 **** 0.053
25132 H92 151.343 126.521 57.0454 H 0 **** 0.41
25133 H93 148.029 126.221 62.0402 H 0 **** 0.053
25134 H94 146.61 127.118 63.8803 H 0 **** 0.053
25135 H95 145.867 125.646 63.2079 H 0 **** 0.053
25136 H96 145.223 127.262 62.7791 H 0 **** 0.053
25137 H97 143.163 121.838 55.7307 H 0 **** 0.41
25138 H98 146.982 121.94 48.2487 H 0 **** 0.41
25139 H99 142.837 125.241 60.7123 H 0 **** 0.41
25140 H100 146.08 124.316 53.0178 H 0 **** 0.053
25141 H101 147.419 123.834 49.4032 H 0 **** 0.053
25142 H102 147.384 127.803 61.6013 H 0 **** 0.053
25143 C1 142.175 123.887 5.26368 C.ar 0 **** 0.042
25144 C2 141.474 122.705 5.41118 C.ar 0 **** -0.1268
25145 C3 140.102 122.715 5.60149 C.ar 0 **** 0
25146 C4 139.393 123.916 5.65177 C.ar 0 **** 0
25147 C5 140.11 125.106 5.49069 C.ar 0 **** -0.1268
25148 C6 141.485 125.106 5.31197 C.ar 0 **** 0
25149 C7 137.993 123.581 5.86408 C.ar 0 **** 0
25150 C8 137.894 122.202 5.92095 C.ar 0 **** 0
25151 C9 139.211 121.522 5.76609 C.3 0 **** -0.106
25152 C10 136.654 121.6 6.10098 C.ar 0 **** 0
25153 C11 135.486 122.381 6.22605 C.ar 0 **** 0
25154 C12 135.649 123.792 6.16896 C.ar 0 **** 0
25155 C13 136.898 124.399 6.00108 C.ar 0 **** 0
25156 C14 137.016 125.896 5.94498 C.3 0 **** -0.106
25157 C15 135.948 126.56 6.81473 C.3 0 **** -0.106
25158 C16 134.603 126.159 6.2727 C.3 0 **** -0.106
25159 C17 134.399 124.659 6.31054 C.ar 0 **** 0
25160 C18 133.156 124.13 6.44599 C.ar 0 **** 0
25161 C19 132.975 122.776 6.47224 C.ar 0 **** 0
25162 C20 134.193 121.773 6.40016 C.ar 0 **** 0
25163 C21 134.161 120.325 6.50844 C.ar 0 **** 0
25164 C22 135.366 119.635 6.34057 C.ar 0 **** 0
25165 C23 136.571 120.218 6.1517 C.ar 0 **** 0.042
25166 C24 131.565 122.215 6.58563 C.3 0 **** -0.106
25167 C25 130.397 123.23 6.41462 C.ar 0 **** 0
25168 C26 130.642 124.581 6.42671 C.ar 0 **** 0
25169 C27 132.02 125.143 6.55541 C.3 0 **** -0.106
25170 C28 129.59 125.49 6.33621 C.ar 0 **** 0.042
25171 C29 128.273 125.081 6.22922 C.ar 0 **** 0
25172 C30 128.046 123.714 6.20613 C.ar 0 **** 0
25173 C31 129.082 122.788 6.30078 C.ar 0 **** 0
25174 C32 126.626 123.137 6.09296 C.ar 0 **** 0
25175 C33 125.525 124.198 6.00359 C.3 0 **** -0.106
25176 C34 125.882 125.482 6.75031 C.3 0 **** -0.106
25177 C35 127.14 126.073 6.1171 C.3 0 **** -0.106
25178 C36 128.722 121.317 6.26988 C.ar 0 **** -0.1268
25179 C37 127.422 120.933 6.16915 C.ar 0 **** 0.0265
25180 C38 126.402 121.799 6.08523 C.ar 0 **** -0.1268
25181 C39 135.306 118.154 6.4063 C.3 0 **** -0.106
25182 C40 133.847 118.03 6.70361 C.ar 0 **** 0
25183 C41 133.19 119.261 6.76041 C.ar 0 **** 0
25184 C42 131.819 119.201 7.08627 C.ar 0 **** -0.1268
25185 C43 131.154 117.974 7.29267 C.ar 0 **** 0
25186 C44 131.848 116.749 7.20683 C.ar 0 **** 0
25187 C45 133.221 116.791 6.91647 C.ar 0 **** 0
25188 C46 133.941 115.578 6.85878 C.ar 0 **** -0.1268
25189 C47 133.344 114.345 7.07326 C.ar 0 **** 0
25190 C48 131.992 114.326 7.36078 C.ar 0 **** -0.1268
25191 C49 131.223 115.499 7.43445 C.ar 0 **** 0
25192 C50 129.85 115.482 7.73786 C.ar 0 **** 0.042
25193 C51 129.14 116.664 7.82161 C.ar 0 **** -0.1268
25194 C52 129.771 117.887 7.61389 C.ar 0 **** -0.1268
25195 O53 143.535 123.882 5.06542 O.3 0 **** -0.452
25196 C54 142.237 126.417 5.13853 C.3 0 **** -0.159
25197 O55 137.668 119.452 6.01904 O.3 0 **** -0.452
25198 C56 134.248 113.119 6.98691 C.3 0 **** -0.106
25199 C57 133.473 111.799 7.05881 C.3 0 **** -0.159
25200 O58 127.151 119.618 6.15497 O.3 0 **** -0.4365
25201 O59 129.799 126.842 6.34596 O.3 0 **** -0.452
25202 O60 129.137 114.363 7.97069 O.3 0 **** -0.452
25203 H61 141.986 121.716 5.37792 H 0 **** 0.1268
25204 H62 139.643 126.101 5.48528 H 0 **** 0.1268
25205 H63 139.515 120.941 6.65563 H 0 **** 0.053
25206 H64 139.273 120.879 4.86906 H 0 **** 0.053
25207 H65 137.978 126.238 6.31577 H 0 **** 0.053
25208 H66 136.897 126.26 4.90055 H 0 **** 0.053
25209 H67 136.071 126.257 7.88323 H 0 **** 0.053
25210 H68 136.068 127.684 6.79566 H 0 **** 0.053
25211 H69 133.831 126.677 6.85519 H 0 **** 0.053
25212 H70 134.517 126.523 5.2337 H 0 **** 0.053
25213 H71 131.443 121.43 5.80984 H 0 **** 0.053
25214 H72 132.163 125.873 5.75272 H 0 **** 0.053
25215 H73 125.345 124.433 4.93456 H 0 **** 0.053
25216 H74 124.599 123.751 6.39189 H 0 **** 0.053
25217 H75 125.052 126.196 6.68647 H 0 **** 0.053
25218 H76 126.046 125.272 7.81709 H 0 **** 0.053
25219 H77 126.961 126.297 5.05658 H 0 **** 0.053
25220 H78 127.406 127.005 6.60272 H 0 **** 0.053
25221 H79 129.523 120.604 6.31653 H 0 **** 0.1268
25222 H80 125.379 121.467 5.99893 H 0 **** 0.1268
25223 H81 135.556 117.665 5.45132 H 0 **** 0.053
25224 H82 135.909 117.728 7.22384 H 0 **** 0.053
25225 H83 131.177 120.058 7.22906 H 0 **** 0.1268
25226 H84 135.023 115.597 6.63276 H 0 **** 0.1268
25227 H85 131.521 113.362 7.53491 H 0 **** 0.1268
25228 H86 128.065 116.675 8.06382 H 0 **** 0.1268
25229 H87 129.191 118.847 7.72205 H 0 **** 0.1268
25230 H88 143.834 122.983 5.08953 H 0 **** 0.41
25231 H89 143.242 126.352 5.57028 H 0 **** 0.053
25232 H90 141.728 127.252 5.63943 H 0 **** 0.053
25233 H91 142.343 126.666 4.07067 H 0 **** 0.053
25234 H92 137.44 118.535 6.08535 H 0 **** 0.41
25235 H93 134.808 113.142 6.04638 H 0 **** 0.053
25236 H94 134.154 110.929 6.98284 H 0 **** 0.053
25237 H95 132.739 111.71 6.23491 H 0 **** 0.053
25238 H96 132.929 111.696 8.01621 H 0 **** 0.053
25239 H97 127.943 119.106 6.12362 H 0 **** 0.41
25240 H98 130.721 127.032 6.40294 H 0 **** 0.41
25241 H99 129.704 113.606 7.90128 H 0 **** 0.41
25242 H100 131.47 121.816 7.61602 H 0 **** 0.053
25243 H101 132.117 125.649 7.52158 H 0 **** 0.053
25244 H102 134.98 113.144 7.80231 H 0 **** 0.053
25245 C1 120.801 113.698 52.9869 C.ar 0 **** 0.042
25246 C2 121.187 114.141 54.2381 C.ar 0 **** -0.1268
25247 C3 120.455 115.113 54.9004 C.ar 0 **** 0
25248 C4 119.313 115.67 54.3235 C.ar 0 **** 0
25249 C5 118.924 115.206 53.0635 C.ar 0 **** -0.1268
25250 C6 119.657 114.242 52.387 C.ar 0 **** 0
25251 C7 118.789 116.65 55.2628 C.ar 0 **** 0
25252 C8 119.613 116.648 56.3752 C.ar 0 **** 0
25253 C9 120.743 115.685 56.2552 C.3 0 **** -0.106
25254 C10 119.334 117.486 57.4489 C.ar 0 **** 0
25255 C11 118.215 118.345 57.4209 C.ar 0 **** 0
25256 C12 117.41 118.31 56.2492 C.ar 0 **** 0
25257 C13 117.698 117.477 55.1629 C.ar 0 **** 0
25258 C14 116.813 117.477 53.9482 C.3 0 **** -0.106
25259 C15 116.205 118.861 53.7166 C.3 0 **** -0.106
25260 C16 115.373 119.201 54.9228 C.3 0 **** -0.106
25261 C17 116.197 119.237 56.1919 C.ar 0 **** 0
25262 C18 115.85 120.048 57.224 C.ar 0 **** 0
25263 C19 116.592 120.072 58.3707 C.ar 0 **** 0
25264 C20 117.906 119.209 58.5282 C.ar 0 **** 0
25265 C21 118.837 119.203 59.6423 C.ar 0 **** 0
25266 C22 119.901 118.295 59.5939 C.ar 0 **** 0
25267 C23 120.166 117.47 58.557 C.ar 0 **** 0.042
25268 C24 116.153 120.963 59.5237 C.3 0 **** -0.106
25269 C25 114.738 121.602 59.4088 C.ar 0 **** 0
25270 C26 114.053 121.567 58.2192 C.ar 0 **** 0
25271 C27 114.599 120.894 57.0023 C.3 0 **** -0.106
25272 C28 112.81 122.185 58.1012 C.ar 0 **** 0.042
25273 C29 112.224 122.864 59.1555 C.ar 0 **** 0
25274 C30 112.925 122.879 60.3514 C.ar 0 **** 0
25275 C31 114.166 122.264 60.4921 C.ar 0 **** 0
25276 C32 112.375 123.595 61.5958 C.ar 0 **** 0
25277 C33 111.013 124.263 61.3822 C.3 0 **** -0.106
25278 C34 110.812 124.744 59.9467 C.3 0 **** -0.106
25279 C35 110.877 123.532 59.0196 C.3 0 **** -0.106
25280 C36 114.846 122.341 61.8443 C.ar 0 **** -0.1268
25281 C37 114.253 123.008 62.8696 C.ar 0 **** 0.0265
25282 C38 113.064 123.618 62.7634 C.ar 0 **** -0.1268
25283 C39 120.815 118.27 60.7627 C.3 0 **** -0.106
25284 C40 120.169 119.369 61.5412 C.ar 0 **** 0
25285 C41 119.043 119.902 60.9104 C.ar 0 **** 0
25286 C42 118.425 120.977 61.5825 C.ar 0 **** -0.1268
25287 C43 118.89 121.444 62.8291 C.ar 0 **** 0
25288 C44 120.021 120.866 63.445 C.ar 0 **** 0
25289 C45 120.669 119.817 62.7741 C.ar 0 **** 0
25290 C46 121.822 119.247 63.3577 C.ar 0 **** -0.1268
25291 C47 122.335 119.679 64.5708 C.ar 0 **** 0
25292 C48 121.684 120.716 65.2131 C.ar 0 **** -0.1268
25293 C49 120.535 121.325 64.6821 C.ar 0 **** 0
25294 C50 119.877 122.386 65.3296 C.ar 0 **** 0.042
25295 C51 118.764 122.969 64.7564 C.ar 0 **** -0.1268
25296 C52 118.28 122.521 63.5305 C.ar 0 **** -0.1268
25297 O53 121.521 112.731 52.3275 O.3 0 **** -0.452
25298 C54 119.207 113.755 51.0182 C.3 0 **** -0.159
25299 O55 121.23 116.65 58.6129 O.3 0 **** -0.452
25300 C56 123.59 118.976 65.0748 C.3 0 **** -0.106
25301 C57 123.982 119.395 66.4962 C.3 0 **** -0.159
25302 O58 114.897 123.055 64.0476 O.3 0 **** -0.4365
25303 O59 112.097 122.161 56.933 O.3 0 **** -0.452
25304 O60 120.26 122.91 66.5106 O.3 0 **** -0.452
25305 H61 122.087 113.731 54.7497 H 0 **** 0.1268
25306 H62 118.026 115.556 52.5368 H 0 **** 0.1268
25307 H63 121.737 116.168 56.2599 H 0 **** 0.053
25308 H64 120.722 114.882 57.015 H 0 **** 0.053
25309 H65 117.366 117.225 53.0482 H 0 **** 0.053
25310 H66 115.986 116.743 54.0653 H 0 **** 0.053
25311 H67 117.01 119.616 53.5424 H 0 **** 0.053
25312 H68 115.572 118.86 52.7804 H 0 **** 0.053
25313 H69 114.886 120.167 54.7406 H 0 **** 0.053
25314 H70 114.567 118.451 55.0208 H 0 **** 0.053
25315 H71 116.171 120.356 60.4534 H 0 **** 0.053
25316 H72 113.825 120.225 56.6128 H 0 **** 0.053
25317 H73 110.217 123.535 61.6408 H 0 **** 0.053
25318 H74 110.932 125.091 62.0998 H 0 **** 0.053
25319 H75 109.841 125.244 59.8518 H 0 **** 0.053
25320 H76 111.582 125.48 59.6781 H 0 **** 0.053
25321 H77 110.09 122.812 59.2831 H 0 **** 0.053
25322 H78 110.708 123.833 57.9917 H 0 **** 0.053
25323 H79 115.79 121.844 61.9584 H 0 **** 0.1268
25324 H80 112.613 124.134 63.5963 H 0 **** 0.1268
25325 H81 120.781 117.32 61.3203 H 0 **** 0.053
25326 H82 121.855 118.528 60.5089 H 0 **** 0.053
25327 H83 117.583 121.541 61.2084 H 0 **** 0.1268
25328 H84 122.343 118.422 62.8392 H 0 **** 0.1268
25329 H85 122.088 121.063 66.1612 H 0 **** 0.1268
25330 H86 118.237 123.806 65.2422 H 0 **** 0.1268
25331 H87 117.394 123.028 63.054 H 0 **** 0.1268
25332 H88 122.257 112.489 52.8725 H 0 **** 0.41
25333 H89 120.069 113.492 50.3934 H 0 **** 0.053
25334 H90 118.64 114.523 50.4745 H 0 **** 0.053
25335 H91 118.575 112.857 51.1151 H 0 **** 0.053
25336 H92 121.692 116.766 59.4317 H 0 **** 0.41
25337 H93 123.435 117.893 65.0619 H 0 **** 0.053
25338 H94 124.89 118.86 66.8373 H 0 **** 0.053
25339 H95 123.179 119.169 67.2249 H 0 **** 0.053
25340 H96 124.207 120.476 66.5571 H 0 **** 0.053
25341 H97 115.674 122.521 64.0334 H 0 **** 0.41
25342 H98 112.576 121.692 56.2691 H 0 **** 0.41
25343 H99 121.038 122.462 66.8169 H 0 **** 0.41
25344 H100 116.866 121.811 59.5532 H 0 **** 0.053
25345 H101 114.837 121.65 56.2451 H 0 **** 0.053
25346 H102 124.426 119.193 64.4004 H 0 **** 0.053
25347 C1 149.743 92.445 26.4076 C.ar 0 **** 0.042
25348 C2 149.761 92.4114 27.7896 C.ar 0 **** -0.1268
25349 C3 149.879 93.5799 28.5239 C.ar 0 **** 0
25350 C4 149.985 94.8187 27.8901 C.ar 0 **** 0
25351 C5 149.952 94.8431 26.4926 C.ar 0 **** -0.1268
25352 C6 149.846 93.6776 25.7483 C.ar 0 **** 0
25353 C7 150.099 95.8277 28.9322 C.ar 0 **** 0
25354 C8 150.045 95.179 30.1534 C.ar 0 **** 0
25355 C9 149.907 93.7016 30.0172 C.3 0 **** -0.106
25356 C10 150.115 95.9107 31.3339 C.ar 0 **** 0
25357 C11 150.239 97.3155 31.304 C.ar 0 **** 0
25358 C12 150.298 97.9265 30.0215 C.ar 0 **** 0
25359 C13 150.241 97.1893 28.8334 C.ar 0 **** 0
25360 C14 150.305 97.8849 27.5027 C.3 0 **** -0.106
25361 C15 151.167 99.1449 27.5861 C.3 0 **** -0.106
25362 C16 150.527 100.069 28.5862 C.3 0 **** -0.106
25363 C17 150.441 99.4464 29.9635 C.ar 0 **** 0
25364 C18 150.472 100.219 31.0795 C.ar 0 **** 0
25365 C19 150.385 99.6534 32.3205 C.ar 0 **** 0
25366 C20 150.3 98.0887 32.5156 C.ar 0 **** 0
25367 C21 150.296 97.3476 33.7645 C.ar 0 **** 0
25368 C22 150.138 95.9592 33.6949 C.ar 0 **** 0
25369 C23 150.057 95.2476 32.5489 C.ar 0 **** 0.042
25370 C24 150.384 100.551 33.5493 C.3 0 **** -0.106
25371 C25 150.229 102.079 33.2943 C.ar 0 **** 0
25372 C26 150.353 102.589 32.0254 C.ar 0 **** 0
25373 C27 150.601 101.72 30.8357 C.3 0 **** -0.106
25374 C28 150.269 103.962 31.8044 C.ar 0 **** 0.042
25375 C29 150.073 104.862 32.8381 C.ar 0 **** 0
25376 C30 149.939 104.327 34.1103 C.ar 0 **** 0
25377 C31 150.016 102.958 34.3524 C.ar 0 **** 0
25378 C32 149.712 105.224 35.3377 C.ar 0 **** 0
25379 C33 149.646 106.721 35.0157 C.3 0 **** -0.106
25380 C34 150.505 107.102 33.8121 C.3 0 **** -0.106
25381 C35 149.983 106.348 32.5906 C.3 0 **** -0.106
25382 C36 149.858 102.482 35.7819 C.ar 0 **** -0.1268
25383 C37 149.666 103.38 36.7836 C.ar 0 **** 0.0265
25384 C38 149.595 104.703 36.5841 C.ar 0 **** -0.1268
25385 C39 150.088 95.2243 34.9827 C.3 0 **** -0.106
25386 C40 150.299 96.3956 35.8859 C.ar 0 **** 0
25387 C41 150.415 97.6057 35.1992 C.ar 0 **** 0
25388 C42 150.665 98.7367 36.0042 C.ar 0 **** -0.1268
25389 C43 150.742 98.6497 37.4098 C.ar 0 **** 0
25390 C44 150.599 97.4105 38.0694 C.ar 0 **** 0
25391 C45 150.384 96.2685 37.2815 C.ar 0 **** 0
25392 C46 150.272 95.014 37.9194 C.ar 0 **** -0.1268
25393 C47 150.361 94.8659 39.2951 C.ar 0 **** 0
25394 C48 150.577 96.0024 40.0523 C.ar 0 **** -0.1268
25395 C49 150.7 97.2776 39.4756 C.ar 0 **** 0
25396 C50 150.931 98.4326 40.2435 C.ar 0 **** 0.042
25397 C51 151.067 99.6616 39.6289 C.ar 0 **** -0.1268
25398 C52 150.985 99.7758 38.2438 C.ar 0 **** -0.1268
25399 O53 149.623 91.2881 25.675 O.3 0 **** -0.452
25400 C54 149.81 93.7361 24.2288 C.3 0 **** -0.159
25401 O55 149.925 93.9108 32.6023 O.3 0 **** -0.452
25402 C56 150.229 93.4493 39.8435 C.3 0 **** -0.106
25403 C57 150.16 93.4051 41.3741 C.3 0 **** -0.159
25404 O58 149.545 102.912 38.0366 O.3 0 **** -0.4365
25405 O59 150.381 104.502 30.5519 O.3 0 **** -0.452
25406 O60 151.044 98.4418 41.5862 O.3 0 **** -0.452
25407 H61 149.676 91.4523 28.3507 H 0 **** 0.1268
25408 H62 149.996 95.7666 25.8995 H 0 **** 0.1268
25409 H63 150.764 93.1383 30.4285 H 0 **** 0.053
25410 H64 148.968 93.3044 30.4446 H 0 **** 0.053
25411 H65 150.749 97.2522 26.7399 H 0 **** 0.053
25412 H66 149.286 98.1753 27.1632 H 0 **** 0.053
25413 H67 152.214 98.8826 27.8751 H 0 **** 0.053
25414 H68 151.239 99.6395 26.5727 H 0 **** 0.053
25415 H69 151.107 101 28.6104 H 0 **** 0.053
25416 H70 149.516 100.333 28.23 H 0 **** 0.053
25417 H71 149.545 100.235 34.2052 H 0 **** 0.053
25418 H72 149.866 101.984 30.0686 H 0 **** 0.053
25419 H73 148.589 106.993 34.8156 H 0 **** 0.053
25420 H74 149.95 107.268 35.9184 H 0 **** 0.053
25421 H75 150.453 108.184 33.6428 H 0 **** 0.053
25422 H76 151.56 106.854 34.0005 H 0 **** 0.053
25423 H77 148.936 106.618 32.3995 H 0 **** 0.053
25424 H78 150.552 106.618 31.708 H 0 **** 0.053
25425 H79 149.89 101.425 35.9637 H 0 **** 0.1268
25426 H80 149.428 105.392 37.3975 H 0 **** 0.1268
25427 H81 149.113 94.7498 35.1751 H 0 **** 0.053
25428 H82 150.901 94.4893 35.0975 H 0 **** 0.053
25429 H83 150.84 99.7361 35.6337 H 0 **** 0.1268
25430 H84 150.104 94.1067 37.3105 H 0 **** 0.1268
25431 H85 150.653 95.89 41.1308 H 0 **** 0.1268
25432 H86 151.254 100.58 40.2099 H 0 **** 0.1268
25433 H87 151.136 100.777 37.7507 H 0 **** 0.1268
25434 H88 149.565 90.5617 26.2812 H 0 **** 0.41
25435 H89 150.286 92.8504 23.792 H 0 **** 0.053
25436 H90 150.346 94.6126 23.8389 H 0 **** 0.053
25437 H91 148.77 93.7736 23.8677 H 0 **** 0.053
25438 H92 149.904 93.6164 33.5023 H 0 **** 0.41
25439 H93 149.323 92.984 39.442 H 0 **** 0.053
25440 H94 150.053 92.3654 41.7415 H 0 **** 0.053
25441 H95 149.296 93.9767 41.7621 H 0 **** 0.053
25442 H96 151.078 93.8141 41.8365 H 0 **** 0.053
25443 H97 149.487 101.97 38.048 H 0 **** 0.41
25444 H98 150.523 103.82 29.9158 H 0 **** 0.41
25445 H99 150.939 97.5588 41.9167 H 0 **** 0.41
25446 H100 151.374 100.423 34.0311 H 0 **** 0.053
25447 H101 151.609 101.911 30.4503 H 0 **** 0.053
25448 H102 151.08 92.845 39.51 H 0 **** 0.053
25449 C1 161.922 144.006 86.5328 C.ar 0 **** 0.042
25450 C2 163.16 143.723 87.0786 C.ar 0 **** -0.1268
25451 C3 164.234 143.398 86.2657 C.ar 0 **** 0
25452 C4 164.094 143.347 84.878 C.ar 0 **** 0
25453 C5 162.841 143.649 84.3354 C.ar 0 **** -0.1268
25454 C6 161.757 143.962 85.1415 C.ar 0 **** 0
25455 C7 165.389 142.977 84.3279 C.ar 0 **** 0
25456 C8 166.269 142.83 85.3858 C.ar 0 **** 0
25457 C9 165.628 143.076 86.7085 C.3 0 **** -0.106
25458 C10 167.596 142.491 85.1455 C.ar 0 **** 0
25459 C11 168.062 142.296 83.8285 C.ar 0 **** 0
25460 C12 167.112 142.452 82.7827 C.ar 0 **** 0
25461 C13 165.773 142.779 83.025 C.ar 0 **** 0
25462 C14 164.809 142.934 81.8826 C.3 0 **** -0.106
25463 C15 165.176 142.003 80.7277 C.3 0 **** -0.106
25464 C16 166.553 142.383 80.2552 C.3 0 **** -0.106
25465 C17 167.591 142.237 81.3481 C.ar 0 **** 0
25466 C18 168.882 141.946 81.0462 C.ar 0 **** 0
25467 C19 169.817 141.823 82.0352 C.ar 0 **** 0
25468 C20 169.435 141.958 83.5615 C.ar 0 **** 0
25469 C21 170.296 141.762 84.7146 C.ar 0 **** 0
25470 C22 169.752 142.009 85.9798 C.ar 0 **** 0
25471 C23 168.466 142.351 86.2146 C.ar 0 **** 0.042
25472 C24 171.264 141.535 81.6603 C.3 0 **** -0.106
25473 C25 171.627 141.649 80.1509 C.ar 0 **** 0
25474 C26 170.639 141.744 79.2025 C.ar 0 **** 0
25475 C27 169.189 141.781 79.5603 C.3 0 **** -0.106
25476 C28 170.961 141.792 77.8479 C.ar 0 **** 0.042
25477 C29 172.27 141.732 77.4022 C.ar 0 **** 0
25478 C30 173.255 141.648 78.3744 C.ar 0 **** 0
25479 C31 172.954 141.603 79.7333 C.ar 0 **** 0
25480 C32 174.746 141.583 78.0041 C.ar 0 **** 0
25481 C33 175.018 141.624 76.497 C.3 0 **** -0.106
25482 C34 173.894 140.993 75.6783 C.3 0 **** -0.106
25483 C35 172.612 141.784 75.9324 C.3 0 **** -0.106
25484 C36 174.108 141.511 80.7111 C.ar 0 **** -0.1268
25485 C37 175.388 141.458 80.2552 C.ar 0 **** 0.0265
25486 C38 175.709 141.49 78.9543 C.ar 0 **** -0.1268
25487 C39 170.66 141.851 87.1426 C.3 0 **** -0.106
25488 C40 171.869 141.402 86.3883 C.ar 0 **** 0
25489 C41 171.669 141.352 85.0074 C.ar 0 **** 0
25490 C42 172.766 140.887 84.2532 C.ar 0 **** -0.1268
25491 C43 173.994 140.544 84.8562 C.ar 0 **** 0
25492 C44 174.165 140.627 86.2545 C.ar 0 **** 0
25493 C45 173.072 141.055 87.0246 C.ar 0 **** 0
25494 C46 173.211 141.114 88.4284 C.ar 0 **** -0.1268
25495 C47 174.387 140.769 89.0766 C.ar 0 **** 0
25496 C48 175.45 140.346 88.3 C.ar 0 **** -0.1268
25497 C49 175.372 140.265 86.8997 C.ar 0 **** 0
25498 C50 176.449 139.825 86.1096 C.ar 0 **** 0.042
25499 C51 176.317 139.74 84.7376 C.ar 0 **** -0.1268
25500 C52 175.118 140.081 84.1173 C.ar 0 **** -0.1268
25501 O53 160.855 144.331 87.3356 O.3 0 **** -0.452
25502 C54 160.407 144.288 84.5218 C.3 0 **** -0.159
25503 O55 168.048 142.546 87.4773 O.3 0 **** -0.452
25504 C56 174.389 140.874 90.5977 C.3 0 **** -0.106
25505 C57 175.776 140.647 91.2103 C.3 0 **** -0.159
25506 O58 176.377 141.368 81.1596 O.3 0 **** -0.4365
25507 O59 170.001 141.893 76.878 O.3 0 **** -0.452
25508 O60 177.649 139.456 86.5987 O.3 0 **** -0.452
25509 H61 163.333 143.752 88.179 H 0 **** 0.1268
25510 H62 162.634 143.667 83.2567 H 0 **** 0.1268
25511 H63 165.622 142.189 87.3675 H 0 **** 0.053
25512 H64 166.058 143.936 87.2549 H 0 **** 0.053
25513 H65 163.794 142.683 82.1766 H 0 **** 0.053
25514 H66 164.812 143.981 81.5067 H 0 **** 0.053
25515 H67 165.132 140.936 81.058 H 0 **** 0.053
25516 H68 164.425 142.1 79.8899 H 0 **** 0.053
25517 H69 166.802 141.757 79.389 H 0 **** 0.053
25518 H70 166.53 143.427 79.8982 H 0 **** 0.053
25519 H71 171.911 142.248 82.2143 H 0 **** 0.053
25520 H72 168.737 142.635 79.0445 H 0 **** 0.053
25521 H73 175.149 142.682 76.1897 H 0 **** 0.053
25522 H74 175.978 141.12 76.319 H 0 **** 0.053
25523 H75 174.15 141.016 74.6118 H 0 **** 0.053
25524 H76 173.762 139.938 75.9569 H 0 **** 0.053
25525 H77 172.748 142.832 75.632 H 0 **** 0.053
25526 H78 171.797 141.382 75.3417 H 0 **** 0.053
25527 H79 173.876 141.504 81.7588 H 0 **** 0.1268
25528 H80 176.734 141.455 78.6203 H 0 **** 0.1268
25529 H81 170.855 142.796 87.6734 H 0 **** 0.053
25530 H82 170.33 141.075 87.8513 H 0 **** 0.053
25531 H83 172.763 140.731 83.1843 H 0 **** 0.1268
25532 H84 172.357 141.448 89.0464 H 0 **** 0.1268
25533 H85 176.372 140.07 88.8048 H 0 **** 0.1268
25534 H86 177.145 139.392 84.0987 H 0 **** 0.1268
25535 H87 175.009 139.972 83.0014 H 0 **** 0.1268
25536 H88 161.147 144.31 88.2366 H 0 **** 0.41
25537 H89 159.588 143.957 85.1712 H 0 **** 0.053
25538 H90 160.269 143.789 83.5527 H 0 **** 0.053
25539 H91 160.302 145.375 84.3728 H 0 **** 0.053
25540 H92 168.76 142.409 88.0863 H 0 **** 0.41
25541 H93 174.035 141.865 90.8976 H 0 **** 0.053
25542 H94 175.747 140.74 92.314 H 0 **** 0.053
25543 H95 176.512 141.387 90.8417 H 0 **** 0.053
25544 H96 176.162 139.635 90.9851 H 0 **** 0.053
25545 H97 176.044 141.451 82.0388 H 0 **** 0.41
25546 H98 169.144 141.917 77.2704 H 0 **** 0.41
25547 H99 177.643 139.54 87.5436 H 0 **** 0.41
25548 H100 171.455 140.479 81.9392 H 0 **** 0.053
25549 H101 168.707 140.858 79.2201 H 0 **** 0.053
25550 H102 173.693 140.139 91.0174 H 0 **** 0.053
25551 C1 125.121 109.815 78.859 C.ar 0 **** 0.042
25552 C2 124.282 110.89 78.6325 C.ar 0 **** -0.1268
25553 C3 124.732 112.006 77.9462 C.ar 0 **** 0
25554 C4 126.041 112.075 77.4674 C.ar 0 **** 0
25555 C5 126.877 110.977 77.69 C.ar 0 **** -0.1268
25556 C6 126.44 109.86 78.3869 C.ar 0 **** 0
25557 C7 126.191 113.363 76.8074 C.ar 0 **** 0
25558 C8 124.977 114.023 76.8923 C.ar 0 **** 0
25559 C9 123.942 113.237 77.6204 C.3 0 **** -0.106
25560 C10 124.829 115.283 76.3237 C.ar 0 **** 0
25561 C11 125.906 115.902 75.6548 C.ar 0 **** 0
25562 C12 127.13 115.181 75.6066 C.ar 0 **** 0
25563 C13 127.284 113.919 76.1904 C.ar 0 **** 0
25564 C14 128.599 113.197 76.1087 C.3 0 **** -0.106
25565 C15 129.765 114.187 76.0981 C.3 0 **** -0.106
25566 C16 129.613 115.058 74.8806 C.3 0 **** -0.106
25567 C17 128.313 115.835 74.895 C.ar 0 **** 0
25568 C18 128.22 117.044 74.2843 C.ar 0 **** 0
25569 C19 127.043 117.739 74.2932 C.ar 0 **** 0
25570 C20 125.766 117.2 75.0501 C.ar 0 **** 0
25571 C21 124.487 117.866 75.2211 C.ar 0 **** 0
25572 C22 123.469 117.16 75.8719 C.ar 0 **** 0
25573 C23 123.608 115.93 76.4138 C.ar 0 **** 0.042
25574 C24 126.961 119.073 73.5657 C.3 0 **** -0.106
25575 C25 128.162 119.439 72.6456 C.ar 0 **** 0
25576 C26 129.328 118.716 72.7029 C.ar 0 **** 0
25577 C27 129.495 117.539 73.6067 C.3 0 **** -0.106
25578 C28 130.421 119.075 71.9173 C.ar 0 **** 0.042
25579 C29 130.389 120.168 71.069 C.ar 0 **** 0
25580 C30 129.2 120.88 71.0161 C.ar 0 **** 0
25581 C31 128.094 120.534 71.7884 C.ar 0 **** 0
25582 C32 129.039 122.107 70.1055 C.ar 0 **** 0
25583 C33 130.287 122.444 69.2859 C.3 0 **** -0.106
25584 C34 131.581 122.063 70.001 C.3 0 **** -0.106
25585 C35 131.578 120.552 70.2217 C.3 0 **** -0.106
25586 C36 126.843 121.379 71.6503 C.ar 0 **** -0.1268
25587 C37 126.827 122.444 70.8062 C.ar 0 **** 0.0265
25588 C38 127.878 122.808 70.0589 C.ar 0 **** -0.1268
25589 C39 122.155 117.838 75.9945 C.3 0 **** -0.106
25590 C40 122.54 119.13 75.3507 C.ar 0 **** 0
25591 C41 123.863 119.151 74.9068 C.ar 0 **** 0
25592 C42 124.291 120.368 74.3344 C.ar 0 **** -0.1268
25593 C43 123.42 121.467 74.1816 C.ar 0 **** 0
25594 C44 122.082 121.4 74.625 C.ar 0 **** 0
25595 C45 121.649 120.208 75.2281 C.ar 0 **** 0
25596 C46 120.323 120.132 75.7086 C.ar 0 **** -0.1268
25597 C47 119.43 121.188 75.6042 C.ar 0 **** 0
25598 C48 119.878 122.353 75.0101 C.ar 0 **** -0.1268
25599 C49 121.185 122.491 74.515 C.ar 0 **** 0
25600 C50 121.645 123.679 73.921 C.ar 0 **** 0.042
25601 C51 122.947 123.774 73.4695 C.ar 0 **** -0.1268
25602 C52 123.824 122.7 73.6005 C.ar 0 **** -0.1268
25603 O53 124.678 108.704 79.5372 O.3 0 **** -0.452
25604 C54 127.372 108.68 78.6111 C.3 0 **** -0.159
25605 O55 122.563 115.353 77.0335 O.3 0 **** -0.452
25606 C56 118.034 120.965 76.1747 C.3 0 **** -0.106
25607 C57 117.068 122.112 75.856 C.3 0 **** -0.159
25608 O58 125.696 123.162 70.7172 O.3 0 **** -0.4365
25609 O59 131.594 118.37 71.9429 O.3 0 **** -0.452
25610 O60 120.894 124.785 73.7532 O.3 0 **** -0.452
25611 H61 123.225 110.89 78.9878 H 0 **** 0.1268
25612 H62 127.913 110.918 77.3285 H 0 **** 0.1268
25613 H63 123.593 113.721 78.5504 H 0 **** 0.053
25614 H64 123.069 112.97 76.9963 H 0 **** 0.053
25615 H65 128.753 112.543 76.9623 H 0 **** 0.053
25616 H66 128.651 112.58 75.1846 H 0 **** 0.053
25617 H67 129.773 114.789 77.0392 H 0 **** 0.053
25618 H68 130.75 113.634 76.0745 H 0 **** 0.053
25619 H69 130.476 115.733 74.8335 H 0 **** 0.053
25620 H70 129.657 114.419 73.9805 H 0 **** 0.053
25621 H71 126.047 119.065 72.9354 H 0 **** 0.053
25622 H72 129.881 116.708 73.0083 H 0 **** 0.053
25623 H73 130.231 121.911 68.3157 H 0 **** 0.053
25624 H74 130.255 123.517 69.0591 H 0 **** 0.053
25625 H75 132.446 122.358 69.394 H 0 **** 0.053
25626 H76 131.662 122.595 70.9595 H 0 **** 0.053
25627 H77 131.517 120.029 69.2576 H 0 **** 0.053
25628 H78 132.499 120.238 70.7013 H 0 **** 0.053
25629 H79 125.983 121.096 72.2267 H 0 **** 0.1268
25630 H80 127.837 123.655 69.3928 H 0 **** 0.1268
25631 H81 121.354 117.339 75.4276 H 0 **** 0.053
25632 H82 121.843 117.998 77.0389 H 0 **** 0.053
25633 H83 125.295 120.575 73.9949 H 0 **** 0.1268
25634 H84 119.97 119.2 76.1868 H 0 **** 0.1268
25635 H85 119.182 123.185 74.931 H 0 **** 0.1268
25636 H86 123.331 124.698 73.0062 H 0 **** 0.1268
25637 H87 124.894 122.802 73.2643 H 0 **** 0.1268
25638 H88 123.773 108.849 79.7797 H 0 **** 0.41
25639 H89 127.16 108.19 79.5686 H 0 **** 0.053
25640 H90 128.427 108.988 78.6362 H 0 **** 0.053
25641 H91 127.247 107.931 77.8132 H 0 **** 0.053
25642 H92 121.808 115.925 77.0111 H 0 **** 0.41
25643 H93 117.616 120.037 75.7706 H 0 **** 0.053
25644 H94 116.061 121.917 76.2735 H 0 **** 0.053
25645 H95 116.945 122.253 74.7649 H 0 **** 0.053
25646 H96 117.413 123.07 76.289 H 0 **** 0.053
25647 H97 125.006 122.779 71.2351 H 0 **** 0.41
25648 H98 131.533 117.66 72.5604 H 0 **** 0.41
25649 H99 120.023 124.63 74.0964 H 0 **** 0.41
25650 H100 126.932 119.856 74.351 H 0 **** 0.053
25651 H101 130.218 117.784 74.3936 H 0 **** 0.053
25652 H102 118.096 120.847 77.2626 H 0 **** 0.053
25653 C1 118.628 177.128 53.4435 C.ar 0 **** 0.042
25654 C2 117.422 177.087 52.769 C.ar 0 **** -0.1268
25655 C3 117.387 176.997 51.3873 C.ar 0 **** 0
25656 C4 118.565 176.948 50.6408 C.ar 0 **** 0
25657 C5 119.78 176.975 51.3335 C.ar 0 **** -0.1268
25658 C6 119.825 177.077 52.716 C.ar 0 **** 0
25659 C7 118.183 176.87 49.2388 C.ar 0 **** 0
25660 C8 116.801 176.849 49.179 C.ar 0 **** 0
25661 C9 116.164 176.937 50.5234 C.3 0 **** -0.106
25662 C10 116.16 176.755 47.9485 C.ar 0 **** 0
25663 C11 116.904 176.671 46.7527 C.ar 0 **** 0
25664 C12 118.32 176.704 46.8757 C.ar 0 **** 0
25665 C13 118.963 176.824 48.1119 C.ar 0 **** 0
25666 C14 120.458 176.861 48.1879 C.3 0 **** -0.106
25667 C15 121.069 177.498 46.9435 C.3 0 **** -0.106
25668 C16 120.655 176.674 45.7526 C.3 0 **** -0.106
25669 C17 119.15 176.618 45.5948 C.ar 0 **** 0
25670 C18 118.583 176.482 44.3679 C.ar 0 **** 0
25671 C19 117.225 176.424 44.2312 C.ar 0 **** 0
25672 C20 116.257 176.561 45.4723 C.ar 0 **** 0
25673 C21 114.806 176.611 45.4686 C.ar 0 **** 0
25674 C22 114.155 176.664 46.7059 C.ar 0 **** 0
25675 C23 114.776 176.742 47.9035 C.ar 0 **** 0.042
25676 C24 116.623 176.233 42.8472 C.3 0 **** -0.106
25677 C25 117.613 175.866 41.7039 C.ar 0 **** 0
25678 C26 118.969 175.97 41.8958 C.ar 0 **** 0
25679 C27 119.561 176.398 43.1988 C.3 0 **** -0.106
25680 C28 119.854 175.693 40.8555 C.ar 0 **** 0.042
25681 C29 119.414 175.321 39.5971 C.ar 0 **** 0
25682 C30 118.042 175.211 39.4259 C.ar 0 **** 0
25683 C31 117.141 175.477 40.4534 C.ar 0 **** 0
25684 C32 117.432 174.8 38.077 C.ar 0 **** 0
25685 C33 118.467 174.533 36.9837 C.3 0 **** -0.106
25686 C34 119.729 175.376 37.1378 C.3 0 **** -0.106
25687 C35 120.379 175.023 38.474 C.3 0 **** -0.106
25688 C36 115.663 175.323 40.1564 C.ar 0 **** -0.1268
25689 C37 115.25 174.95 38.9163 C.ar 0 **** 0.0265
25690 C38 116.091 174.696 37.9045 C.ar 0 **** -0.1268
25691 C39 112.672 176.665 46.6842 C.3 0 **** -0.106
25692 C40 112.498 176.659 45.2004 C.ar 0 **** 0
25693 C41 113.707 176.626 44.5042 C.ar 0 **** 0
25694 C42 113.598 176.668 43.0987 C.ar 0 **** -0.1268
25695 C43 112.347 176.694 42.4478 C.ar 0 **** 0
25696 C44 111.145 176.706 43.1864 C.ar 0 **** 0
25697 C45 111.235 176.698 44.5875 C.ar 0 **** 0
25698 C46 110.045 176.743 45.3454 C.ar 0 **** -0.1268
25699 C47 108.789 176.79 44.7598 C.ar 0 **** 0
25700 C48 108.722 176.8 43.3788 C.ar 0 **** -0.1268
25701 C49 109.871 176.76 42.5708 C.ar 0 **** 0
25702 C50 109.805 176.781 41.1662 C.ar 0 **** 0.042
25703 C51 110.963 176.762 40.4145 C.ar 0 **** -0.1268
25704 C52 112.211 176.728 41.0326 C.ar 0 **** -0.1268
25705 O53 118.666 177.216 54.8146 O.3 0 **** -0.452
25706 C54 121.161 177.103 53.4425 C.3 0 **** -0.159
25707 O55 114.047 176.808 49.0306 O.3 0 **** -0.452
25708 C56 107.593 176.844 45.7036 C.3 0 **** -0.106
25709 C57 106.25 176.713 44.9751 C.3 0 **** -0.159
25710 O58 113.93 174.834 38.6983 O.3 0 **** -0.4365
25711 O59 121.21 175.78 41.0146 O.3 0 **** -0.452
25712 O60 108.659 176.827 40.4601 O.3 0 **** -0.452
25713 H61 116.449 177.12 53.3109 H 0 **** 0.1268
25714 H62 120.761 176.905 50.8438 H 0 **** 0.1268
25715 H63 115.556 177.849 50.663 H 0 **** 0.053
25716 H64 115.561 176.049 50.7851 H 0 **** 0.053
25717 H65 120.813 177.42 49.0461 H 0 **** 0.053
25718 H66 120.837 175.83 48.2731 H 0 **** 0.053
25719 H67 120.73 178.558 46.8506 H 0 **** 0.053
25720 H68 122.195 177.537 47.0306 H 0 **** 0.053
25721 H69 121.128 177.105 44.8609 H 0 **** 0.053
25722 H70 121.057 175.652 45.8638 H 0 **** 0.053
25723 H71 115.868 175.422 42.9091 H 0 **** 0.053
25724 H72 120.328 175.668 43.4753 H 0 **** 0.053
25725 H73 118.74 173.462 37.0251 H 0 **** 0.053
25726 H74 117.977 174.707 36.0163 H 0 **** 0.053
25727 H75 120.421 175.168 36.3124 H 0 **** 0.053
25728 H76 119.484 176.446 37.0936 H 0 **** 0.053
25729 H77 120.641 173.957 38.4989 H 0 **** 0.053
25730 H78 121.297 175.584 38.6084 H 0 **** 0.053
25731 H79 114.971 175.504 40.9564 H 0 **** 0.1268
25732 H80 115.737 174.394 36.9317 H 0 **** 0.1268
25733 H81 112.23 175.763 47.1362 H 0 **** 0.053
25734 H82 112.23 177.571 47.1275 H 0 **** 0.053
25735 H83 114.432 176.71 42.4129 H 0 **** 0.1268
25736 H84 110.102 176.739 46.4494 H 0 **** 0.1268
25737 H85 107.74 176.842 42.9159 H 0 **** 0.1268
25738 H86 110.936 176.784 39.3127 H 0 **** 0.1268
25739 H87 113.149 176.752 40.4108 H 0 **** 0.1268
25740 H88 117.774 177.237 55.133 H 0 **** 0.41
25741 H89 121.104 177.724 54.344 H 0 **** 0.053
25742 H90 121.961 177.52 52.8158 H 0 **** 0.053
25743 H91 121.453 176.086 53.7505 H 0 **** 0.053
25744 H92 113.122 176.788 48.8278 H 0 **** 0.41
25745 H93 107.669 176.036 46.4388 H 0 **** 0.053
25746 H94 105.402 176.744 45.6871 H 0 **** 0.053
25747 H95 106.176 175.756 44.4238 H 0 **** 0.053
25748 H96 106.093 177.537 44.2551 H 0 **** 0.053
25749 H97 113.441 174.946 39.4978 H 0 **** 0.41
25750 H98 121.419 176.05 41.8943 H 0 **** 0.41
25751 H99 107.922 176.845 41.0575 H 0 **** 0.41
25752 H100 116.18 177.209 42.5623 H 0 **** 0.053
25753 H101 120.025 177.384 43.0806 H 0 **** 0.053
25754 H102 107.603 177.79 46.2572 H 0 **** 0.053
25755 C1 124.746 183.974 29.552 C.ar 0 **** 0.042
25756 C2 124.209 182.865 30.1789 C.ar 0 **** -0.1268
25757 C3 124.131 181.65 29.5191 C.ar 0 **** 0
25758 C4 124.587 181.514 28.2067 C.ar 0 **** 0
25759 C5 125.136 182.639 27.585 C.ar 0 **** -0.1268
25760 C6 125.21 183.861 28.2343 C.ar 0 **** 0
25761 C7 124.361 180.132 27.8128 C.ar 0 **** 0
25762 C8 123.795 179.475 28.891 C.ar 0 **** 0
25763 C9 123.591 180.365 30.0683 C.3 0 **** -0.106
25764 C10 123.487 178.122 28.7974 C.ar 0 **** 0
25765 C11 123.746 177.405 27.6107 C.ar 0 **** 0
25766 C12 124.321 178.134 26.5336 C.ar 0 **** 0
25767 C13 124.619 179.498 26.6228 C.ar 0 **** 0
25768 C14 125.228 180.222 25.455 C.3 0 **** -0.106
25769 C15 124.749 179.624 24.1322 C.3 0 **** -0.106
25770 C16 125.19 178.186 24.0952 C.3 0 **** -0.106
25771 C17 124.603 177.381 25.235 C.ar 0 **** 0
25772 C18 124.363 176.052 25.0957 C.ar 0 **** 0
25773 C19 123.84 175.327 26.1296 C.ar 0 **** 0
25774 C20 123.445 176.003 27.5012 C.ar 0 **** 0
25775 C21 122.801 175.383 28.6454 C.ar 0 **** 0
25776 C22 122.612 176.166 29.7889 C.ar 0 **** 0
25777 C23 122.923 177.477 29.8862 C.ar 0 **** 0.042
25778 C24 123.62 173.832 25.9539 C.3 0 **** -0.106
25779 C25 124.242 173.181 24.6838 C.ar 0 **** 0
25780 C26 124.727 173.966 23.6668 C.ar 0 **** 0
25781 C27 124.721 175.458 23.736 C.3 0 **** -0.106
25782 C28 125.235 173.385 22.5069 C.ar 0 **** 0.042
25783 C29 125.26 172.013 22.3228 C.ar 0 **** 0
25784 C30 124.777 171.237 23.3648 C.ar 0 **** 0
25785 C31 124.269 171.797 24.5341 C.ar 0 **** 0
25786 C32 124.759 169.702 23.2817 C.ar 0 **** 0
25787 C33 125.319 169.14 21.9708 C.3 0 **** -0.106
25788 C34 125.09 170.075 20.7849 C.3 0 **** -0.106
25789 C35 125.812 171.391 21.0627 C.3 0 **** -0.106
25790 C36 123.766 170.856 25.61 C.ar 0 **** -0.1268
25791 C37 123.804 169.512 25.4137 C.ar 0 **** 0.0265
25792 C38 124.277 168.942 24.2965 C.ar 0 **** -0.1268
25793 C39 121.997 175.502 30.9641 C.3 0 **** -0.106
25794 C40 121.775 174.164 30.3386 C.ar 0 **** 0
25795 C41 122.233 174.09 29.0214 C.ar 0 **** 0
25796 C42 122.004 172.861 28.3686 C.ar 0 **** -0.1268
25797 C43 121.395 171.771 29.0241 C.ar 0 **** 0
25798 C44 120.963 171.877 30.3635 C.ar 0 **** 0
25799 C45 121.153 173.104 31.0189 C.ar 0 **** 0
25800 C46 120.701 173.243 32.3492 C.ar 0 **** -0.1268
25801 C47 120.079 172.21 33.0346 C.ar 0 **** 0
25802 C48 119.897 171.012 32.3689 C.ar 0 **** -0.1268
25803 C49 120.327 170.814 31.0472 C.ar 0 **** 0
25804 C50 120.145 169.599 30.3645 C.ar 0 **** 0.042
25805 C51 120.555 169.461 29.0545 C.ar 0 **** -0.1268
25806 C52 121.161 170.521 28.3875 C.ar 0 **** -0.1268
25807 O53 124.839 185.179 30.2053 O.3 0 **** -0.452
25808 C54 125.814 185.066 27.5362 C.3 0 **** -0.159
25809 O55 122.679 178.137 31.0319 O.3 0 **** -0.452
25810 C56 119.634 172.503 34.4623 C.3 0 **** -0.106
25811 C57 119.121 171.257 35.1958 C.3 0 **** -0.159
25812 O58 123.339 168.718 26.3926 O.3 0 **** -0.4365
25813 O59 125.733 174.137 21.4781 O.3 0 **** -0.452
25814 O60 119.576 168.504 30.895 O.3 0 **** -0.452
25815 H61 123.834 182.913 31.2268 H 0 **** 0.1268
25816 H62 125.55 182.631 26.5678 H 0 **** 0.1268
25817 H63 122.53 180.489 30.3494 H 0 **** 0.053
25818 H64 124.173 180.062 30.9581 H 0 **** 0.053
25819 H65 124.949 181.271 25.4428 H 0 **** 0.053
25820 H66 126.338 180.158 25.4903 H 0 **** 0.053
25821 H67 123.64 179.719 24.0405 H 0 **** 0.053
25822 H68 125.183 180.198 23.2612 H 0 **** 0.053
25823 H69 124.901 177.765 23.1246 H 0 **** 0.053
25824 H70 126.293 178.152 24.142 H 0 **** 0.053
25825 H71 124.048 173.315 26.8381 H 0 **** 0.053
25826 H72 125.727 175.81 23.4886 H 0 **** 0.053
25827 H73 126.407 168.965 22.0964 H 0 **** 0.053
25828 H74 124.855 168.158 21.8056 H 0 **** 0.053
25829 H75 125.475 169.615 19.8663 H 0 **** 0.053
25830 H76 124.014 170.246 20.6337 H 0 **** 0.053
25831 H77 126.888 171.212 21.1919 H 0 **** 0.053
25832 H78 125.696 172.07 20.2255 H 0 **** 0.053
25833 H79 123.4 171.289 26.5211 H 0 **** 0.1268
25834 H80 124.302 167.871 24.1704 H 0 **** 0.1268
25835 H81 122.677 175.425 31.8269 H 0 **** 0.053
25836 H82 121.039 175.954 31.2696 H 0 **** 0.053
25837 H83 122.239 172.651 27.3353 H 0 **** 0.1268
25838 H84 120.842 174.204 32.8767 H 0 **** 0.1268
25839 H85 119.402 170.207 32.9031 H 0 **** 0.1268
25840 H86 120.408 168.519 28.5029 H 0 **** 0.1268
25841 H87 121.463 170.408 27.3087 H 0 **** 0.1268
25842 H88 124.456 185.08 31.0655 H 0 **** 0.41
25843 H89 125.319 185.983 27.8704 H 0 **** 0.053
25844 H90 125.698 185.012 26.445 H 0 **** 0.053
25845 H91 126.887 185.157 27.77 H 0 **** 0.053
25846 H92 122.294 177.555 31.6728 H 0 **** 0.41
25847 H93 120.47 172.924 35.0297 H 0 **** 0.053
25848 H94 118.815 171.49 36.2336 H 0 **** 0.053
25849 H95 119.9 170.474 35.2622 H 0 **** 0.053
25850 H96 118.235 170.826 34.6967 H 0 **** 0.053
25851 H97 123.119 169.218 27.1625 H 0 **** 0.41
25852 H98 125.665 175.056 21.6843 H 0 **** 0.41
25853 H99 119.283 168.694 31.7773 H 0 **** 0.41
25854 H100 122.524 173.686 25.8628 H 0 **** 0.053
25855 H101 124.009 175.853 23.0016 H 0 **** 0.053
25856 H102 118.839 173.257 34.4436 H 0 **** 0.053
25857 C1 148.736 166.876 50.6606 C.ar 0 **** 0.042
25858 C2 147.997 167.965 51.0852 C.ar 0 **** -0.1268
25859 C3 148.617 169.047 51.6885 C.ar 0 **** 0
25860 C4 149.998 169.067 51.8844 C.ar 0 **** 0
25861 C5 150.737 167.966 51.4395 C.ar 0 **** -0.1268
25862 C6 150.125 166.873 50.8458 C.ar 0 **** 0
25863 C7 150.323 170.325 52.5384 C.ar 0 **** 0
25864 C8 149.143 171.029 52.705 C.ar 0 **** 0
25865 C9 147.954 170.293 52.1912 C.3 0 **** -0.106
25866 C10 149.161 172.288 53.2957 C.ar 0 **** 0
25867 C11 150.375 172.862 53.7285 C.ar 0 **** 0
25868 C12 151.553 172.09 53.5396 C.ar 0 **** 0
25869 C13 151.534 170.817 52.9579 C.ar 0 **** 0
25870 C14 152.809 170.043 52.779 C.3 0 **** -0.106
25871 C15 153.804 170.363 53.8949 C.3 0 **** -0.106
25872 C16 154.115 171.833 53.8201 C.3 0 **** -0.106
25873 C17 152.879 172.687 54.0087 C.ar 0 **** 0
25874 C18 152.968 173.928 54.5538 C.ar 0 **** 0
25875 C19 151.851 174.698 54.7152 C.ar 0 **** 0
25876 C20 150.414 174.169 54.3296 C.ar 0 **** 0
25877 C21 149.138 174.833 54.5291 C.ar 0 **** 0
25878 C22 147.991 174.2 54.0391 C.ar 0 **** 0
25879 C23 147.973 172.982 53.4532 C.ar 0 **** 0.042
25880 C24 151.99 176.099 55.2924 C.3 0 **** -0.106
25881 C25 153.438 176.654 55.4295 C.ar 0 **** 0
25882 C26 154.52 175.822 55.2813 C.ar 0 **** 0
25883 C27 154.373 174.373 54.9497 C.3 0 **** -0.106
25884 C28 155.814 176.307 55.4564 C.ar 0 **** 0.042
25885 C29 156.065 177.625 55.7969 C.ar 0 **** 0
25886 C30 154.961 178.453 55.9308 C.ar 0 **** 0
25887 C31 153.66 177.99 55.7553 C.ar 0 **** 0
25888 C32 155.112 179.938 56.2982 C.ar 0 **** 0
25889 C33 156.563 180.391 56.4897 C.3 0 **** -0.106
25890 C34 157.464 179.274 57.0111 C.3 0 **** -0.106
25891 C35 157.47 178.143 55.9855 C.3 0 **** -0.106
25892 C36 152.526 178.981 55.9259 C.ar 0 **** -0.1268
25893 C37 152.792 180.272 56.2553 C.ar 0 **** 0.0265
25894 C38 154.032 180.747 56.4393 C.ar 0 **** -0.1268
25895 C39 146.703 174.916 54.2093 C.3 0 **** -0.106
25896 C40 147.236 176.099 54.952 C.ar 0 **** 0
25897 C41 148.619 176.059 55.1335 C.ar 0 **** 0
25898 C42 149.164 177.132 55.8705 C.ar 0 **** -0.1268
25899 C43 148.367 178.193 56.3472 C.ar 0 **** 0
25900 C44 146.974 178.209 56.1261 C.ar 0 **** 0
25901 C45 146.41 177.132 55.4225 C.ar 0 **** 0
25902 C46 145.016 177.12 55.208 C.ar 0 **** -0.1268
25903 C47 144.191 178.14 55.6528 C.ar 0 **** 0
25904 C48 144.757 179.177 56.3631 C.ar 0 **** -0.1268
25905 C49 146.137 179.243 56.6103 C.ar 0 **** 0
25906 C50 146.72 180.304 57.326 C.ar 0 **** 0.042
25907 C51 148.081 180.322 57.5515 C.ar 0 **** -0.1268
25908 C52 148.891 179.29 57.0845 C.ar 0 **** -0.1268
25909 O53 148.126 165.801 50.0586 O.3 0 **** -0.452
25910 C54 150.956 165.691 50.3696 C.3 0 **** -0.159
25911 O55 146.806 172.461 53.0359 O.3 0 **** -0.452
25912 C56 142.714 177.984 55.3691 C.3 0 **** -0.106
25913 C57 141.871 179.195 55.771 C.3 0 **** -0.159
25914 O58 151.754 181.112 56.4048 O.3 0 **** -0.4365
25915 O59 156.913 175.506 55.3089 O.3 0 **** -0.452
25916 O60 146.031 181.344 57.8335 O.3 0 **** -0.452
25917 H61 146.892 168.007 50.9523 H 0 **** 0.1268
25918 H62 151.831 167.896 51.5181 H 0 **** 0.1268
25919 H63 147.218 170.042 52.976 H 0 **** 0.053
25920 H64 147.44 170.809 51.3587 H 0 **** 0.053
25921 H65 152.636 168.971 52.8131 H 0 **** 0.053
25922 H66 153.283 170.287 51.8026 H 0 **** 0.053
25923 H67 153.379 170.08 54.8889 H 0 **** 0.053
25924 H68 154.744 169.748 53.7722 H 0 **** 0.053
25925 H69 154.872 172.061 54.5805 H 0 **** 0.053
25926 H70 154.573 172.049 52.8388 H 0 **** 0.053
25927 H71 151.425 176.798 54.6404 H 0 **** 0.053
25928 H72 155.028 174.154 54.1006 H 0 **** 0.053
25929 H73 156.952 180.754 55.5164 H 0 **** 0.053
25930 H74 156.554 181.253 57.1708 H 0 **** 0.053
25931 H75 158.481 179.654 57.1647 H 0 **** 0.053
25932 H76 157.104 178.914 57.9853 H 0 **** 0.053
25933 H77 157.851 178.508 55.022 H 0 **** 0.053
25934 H78 158.126 177.342 56.3091 H 0 **** 0.053
25935 H79 151.526 178.629 55.764 H 0 **** 0.1268
25936 H80 154.215 181.779 56.6928 H 0 **** 0.1268
25937 H81 146.247 175.222 53.2547 H 0 **** 0.053
25938 H82 145.973 174.364 54.8226 H 0 **** 0.053
25939 H83 150.202 177.228 56.1511 H 0 **** 0.1268
25940 H84 144.554 176.276 54.6629 H 0 **** 0.1268
25941 H85 144.101 179.962 56.7329 H 0 **** 0.1268
25942 H86 148.559 181.141 58.1105 H 0 **** 0.1268
25943 H87 149.995 179.297 57.306 H 0 **** 0.1268
25944 H88 147.195 165.975 50.0228 H 0 **** 0.41
25945 H89 150.398 164.753 50.4718 H 0 **** 0.053
25946 H90 151.881 165.578 50.9522 H 0 **** 0.053
25947 H91 151.226 165.81 49.3078 H 0 **** 0.053
25948 H92 146.091 173.055 53.2163 H 0 **** 0.41
25949 H93 142.544 177.764 54.3149 H 0 **** 0.053
25950 H94 140.798 179.045 55.5402 H 0 **** 0.053
25951 H95 142.191 180.104 55.2256 H 0 **** 0.053
25952 H96 141.936 179.406 56.8554 H 0 **** 0.053
25953 H97 150.943 180.699 56.1558 H 0 **** 0.41
25954 H98 156.649 174.626 55.0912 H 0 **** 0.41
25955 H99 145.11 181.248 57.6232 H 0 **** 0.41
25956 H100 151.585 176.054 56.3237 H 0 **** 0.053
25957 H101 154.684 173.769 55.8106 H 0 **** 0.053
25958 H102 142.409 177.112 55.9461 H 0 **** 0.053
25959 C1 163.507 140.446 23.9118 C.ar 0 **** 0.042
25960 C2 164.029 139.356 23.2399 C.ar 0 **** -0.1268
25961 C3 165.383 139.067 23.3057 C.ar 0 **** 0
25962 C4 166.252 139.867 24.049 C.ar 0 **** 0
25963 C5 165.712 140.958 24.7357 C.ar 0 **** -0.1268
25964 C6 164.36 141.263 24.6659 C.ar 0 **** 0
25965 C7 167.585 139.301 23.9067 C.ar 0 **** 0
25966 C8 167.483 138.18 23.1021 C.ar 0 **** 0
25967 C9 166.089 137.925 22.6412 C.3 0 **** -0.106
25968 C10 168.614 137.426 22.8109 C.ar 0 **** 0
25969 C11 169.875 137.79 23.3293 C.ar 0 **** 0
25970 C12 169.921 138.956 24.1424 C.ar 0 **** 0
25971 C13 168.785 139.722 24.4246 C.ar 0 **** 0
25972 C14 168.888 140.945 25.2924 C.3 0 **** -0.106
25973 C15 170.249 141.62 25.1248 C.3 0 **** -0.106
25974 C16 171.303 140.634 25.5495 C.3 0 **** -0.106
25975 C17 171.277 139.375 24.7087 C.ar 0 **** 0
25976 C18 172.41 138.658 24.4949 C.ar 0 **** 0
25977 C19 172.38 137.518 23.7418 C.ar 0 **** 0
25978 C20 171.053 137.015 23.0483 C.ar 0 **** 0
25979 C21 170.892 135.883 22.1529 C.ar 0 **** 0
25980 C22 169.599 135.581 21.7143 C.ar 0 **** 0
25981 C23 168.495 136.304 22.0073 C.ar 0 **** 0.042
25982 C24 173.66 136.717 23.5546 C.3 0 **** -0.106
25983 C25 174.87 137.12 24.4462 C.ar 0 **** 0
25984 C26 174.849 138.294 25.1594 C.ar 0 **** 0
25985 C27 173.671 139.213 25.1505 C.3 0 **** -0.106
25986 C28 175.953 138.681 25.9152 C.ar 0 **** 0.042
25987 C29 177.109 137.922 25.9695 C.ar 0 **** 0
25988 C30 177.108 136.736 25.2525 C.ar 0 **** 0
25989 C31 176.014 136.327 24.4949 C.ar 0 **** 0
25990 C32 178.33 135.803 25.241 C.ar 0 **** 0
25991 C33 179.509 136.306 26.0816 C.3 0 **** -0.106
25992 C34 179.582 137.83 26.1395 C.3 0 **** -0.106
25993 C35 178.302 138.349 26.7907 C.3 0 **** -0.106
25994 C36 176.119 135.012 23.7495 C.ar 0 **** -0.1268
25995 C37 177.261 134.278 23.8186 C.ar 0 **** 0.0265
25996 C38 178.334 134.647 24.5316 C.ar 0 **** -0.1268
25997 C39 169.447 134.392 20.8391 C.3 0 **** -0.106
25998 C40 170.893 134.025 20.7551 C.ar 0 **** 0
25999 C41 171.719 134.867 21.5017 C.ar 0 **** 0
26000 C42 173.099 134.591 21.4167 C.ar 0 **** -0.1268
26001 C43 173.599 133.508 20.6643 C.ar 0 **** 0
26002 C44 172.73 132.666 19.9387 C.ar 0 **** 0
26003 C45 171.354 132.946 19.9847 C.ar 0 **** 0
26004 C46 170.471 132.135 19.2391 C.ar 0 **** -0.1268
26005 C47 170.907 131.07 18.4663 C.ar 0 **** 0
26006 C48 172.265 130.814 18.4315 C.ar 0 **** -0.1268
26007 C49 173.194 131.586 19.1493 C.ar 0 **** 0
26008 C50 174.577 131.334 19.1059 C.ar 0 **** 0.042
26009 C51 175.454 132.134 19.8119 C.ar 0 **** -0.1268
26010 C52 174.985 133.204 20.5694 C.ar 0 **** -0.1268
26011 O53 162.165 140.735 23.851 O.3 0 **** -0.452
26012 C54 163.801 142.455 25.4265 C.3 0 **** -0.159
26013 O55 167.302 135.929 21.5149 O.3 0 **** -0.452
26014 C56 169.839 130.289 17.7082 C.3 0 **** -0.106
26015 C57 170.39 129.031 17.0283 C.3 0 **** -0.159
26016 O58 177.311 133.123 23.1335 O.3 0 **** -0.4365
26017 O59 175.962 139.84 26.6429 O.3 0 **** -0.452
26018 O60 175.147 130.339 18.3974 O.3 0 **** -0.452
26019 H61 163.383 138.68 22.6337 H 0 **** 0.1268
26020 H62 166.303 141.63 25.3721 H 0 **** 0.1268
26021 H63 165.968 137.99 21.5447 H 0 **** 0.053
26022 H64 165.673 136.965 22.9994 H 0 **** 0.053
26023 H65 168.137 141.686 25.0329 H 0 **** 0.053
26024 H66 168.756 140.677 26.364 H 0 **** 0.053
26025 H67 170.393 141.95 24.067 H 0 **** 0.053
26026 H68 170.302 142.559 25.7523 H 0 **** 0.053
26027 H69 172.279 141.13 25.4872 H 0 **** 0.053
26028 H70 171.142 140.379 26.6117 H 0 **** 0.053
26029 H71 173.432 135.65 23.7636 H 0 **** 0.053
26030 H72 173.417 139.443 26.19 H 0 **** 0.053
26031 H73 179.407 135.903 27.11 H 0 **** 0.053
26032 H74 180.426 135.873 25.6593 H 0 **** 0.053
26033 H75 180.459 138.141 26.7215 H 0 **** 0.053
26034 H76 179.701 138.247 25.1292 H 0 **** 0.053
26035 H77 178.203 137.943 27.8065 H 0 **** 0.053
26036 H78 178.333 139.43 26.8766 H 0 **** 0.053
26037 H79 175.265 134.686 23.1874 H 0 **** 0.1268
26038 H80 179.224 134.04 24.5751 H 0 **** 0.1268
26039 H81 168.861 133.583 21.302 H 0 **** 0.053
26040 H82 169.046 134.634 19.8417 H 0 **** 0.053
26041 H83 173.879 135.177 21.8813 H 0 **** 0.1268
26042 H84 169.386 132.347 19.2648 H 0 **** 0.1268
26043 H85 172.613 129.984 17.8218 H 0 **** 0.1268
26044 H86 176.542 131.958 19.789 H 0 **** 0.1268
26045 H87 175.712 133.874 21.1104 H 0 **** 0.1268
26046 H88 161.748 140.084 23.3025 H 0 **** 0.41
26047 H89 162.964 142.908 24.8827 H 0 **** 0.053
26048 H90 164.554 143.243 25.568 H 0 **** 0.053
26049 H91 163.431 142.144 26.4167 H 0 **** 0.053
26050 H92 167.393 135.151 20.9817 H 0 **** 0.41
26051 H93 169.042 129.991 18.3974 H 0 **** 0.053
26052 H94 169.591 128.48 16.4942 H 0 **** 0.053
26053 H95 170.835 128.331 17.7609 H 0 **** 0.053
26054 H96 171.164 129.277 16.2767 H 0 **** 0.053
26055 H97 176.473 132.916 22.7516 H 0 **** 0.41
26056 H98 175.143 140.297 26.5378 H 0 **** 0.41
26057 H99 174.472 129.847 17.9473 H 0 **** 0.41
26058 H100 173.985 136.887 22.5079 H 0 **** 0.053
26059 H101 173.938 140.14 24.6303 H 0 **** 0.053
26060 H102 169.386 130.932 16.9453 H 0 **** 0.053
26061 C 109.814 126.178 80.0668 C.3 0 **** 0.054
26062 C 110.772 125.514 79.0357 C.3 0 **** -0.106
26063 C 112.244 125.947 79.2795 C.3 0 **** -0.053
26064 C 112.257 127.45 79.647 C.3 0 **** -0.053
26065 C 111.373 127.7 80.9055 C.3 0 **** 0.054
26066 O 110.526 126.603 81.2172 O.3 0 **** -0.32
26067 C 111.793 128.321 78.442 C.3 0 **** -0.053
26068 C 112.293 127.756 77.0577 C.3 0 **** 0.107
26069 C 113.514 126.865 77.2548 C.3 0 **** -0.106
26070 C 113.187 125.619 78.0944 C.3 0 **** -0.106
26071 O 112.657 128.764 76.108 O.3 0 **** -0.32
26072 C 111.717 129.827 76.1211 C.3 0 **** 0.107
26073 C 112 130.675 77.3895 C.3 0 **** -0.053
26074 C 112.242 129.784 78.6346 C.3 0 **** -0.106
26075 C 110.981 131.745 77.6865 C.2 0 **** 0
26076 C 109.542 131.411 77.3175 C.3 0 **** 0
26077 C 109.359 130.558 76.0632 C.3 0 **** 0
26078 C 110.279 129.351 75.921 C.3 0 **** -0.053
26079 C 107.917 130.229 75.7336 C.3 0 **** 0
26080 C 107.078 131.5 75.6526 C.3 0 **** 0
26081 C 107.236 132.292 77.0039 C.3 0 **** 0.16
26082 C 108.674 132.653 77.3054 C.3 0 **** 0
26083 C 108.836 133.577 78.5433 C.3 0 **** -0.106
26084 C 110.268 134.08 78.4464 C.3 0 **** -0.106
26085 C 111.275 132.96 78.2072 C.2 0 **** -0.1268
26086 O 106.313 133.356 77.3251 O.3 0 **** -0.32
26087 C 105.382 133.591 76.2906 C.3 0 **** 0.16
26088 C 104.665 132.331 75.7016 C.3 0 **** 0
26089 C 105.596 131.136 75.3731 C.3 0 **** 0
26090 C 110.025 128.691 74.5909 C.2 0 **** 0
26091 C 108.656 128.074 74.5244 C.3 0 **** -0.053
26092 C 107.722 129.318 74.5092 C.3 0 **** 0
26093 C 108.322 127.243 73.3053 C.2 0 **** 0
26094 C 109.108 127.38 72.2056 C.2 0 **** 0
26095 C 110.399 128.185 72.1849 C.3 0 **** -0.106
26096 C 110.823 128.749 73.5311 C.2 0 **** -0.1268
26097 C 108.852 126.56 70.9624 C.3 0 **** -0.106
26098 C 107.353 126.356 70.7948 C.3 0 **** -0.106
26099 C 106.76 125.908 72.1195 C.2 0 **** 0
26100 C 107.275 126.356 73.3098 C.2 0 **** 0
26101 C 106.619 125.934 74.6104 C.3 0 **** -0.106
26102 C 105.706 124.724 74.4726 C.3 0 **** -0.053
26103 C 104.731 124.95 73.3049 C.3 0 **** -0.106
26104 C 105.516 125.054 71.9932 C.3 0 **** -0.106
26105 C 105.485 130.375 74.0455 C.3 0 **** 0.147
26106 C 106.229 129.054 74.1759 C.3 0 **** -0.053
26107 C 103.608 132.632 74.6335 C.3 0 **** 0
26108 C 102.907 131.421 74.0046 C.3 0 **** 0.147
26109 S 103.816 130.005 73.4322 S.3 0 **** -0.294
26110 C 101.789 131.755 73.0557 C.3 0 **** -0.053
26111 C 100.796 132.683 73.7678 C.3 0 **** 0
26112 C 101.497 133.985 74.3155 C.3 0 **** 0
26113 C 102.603 133.601 75.3186 C.3 0 **** 0
26114 C 100.449 134.854 74.9971 C.3 0 **** 0
26115 C 99.3707 135.222 73.9984 C.3 0 **** 0
26116 C 98.6502 133.963 73.357 C.3 0 **** 0
26117 C 99.7315 133.041 72.6829 C.3 0 **** -0.053
26118 C 97.6718 134.494 72.2722 C.3 0 **** 0
26119 C 96.566 135.227 72.9989 C.3 0 **** 0.16
26120 C 97.0835 136.365 73.885 C.3 0 **** 0
26121 C 98.4654 136.326 74.4707 C.3 0 **** 0
26122 C 103.274 134.81 76.0234 C.3 0 **** 0
26123 C 104.352 134.411 77.0253 C.3 0 **** -0.053
26124 C 100.952 135.975 75.9335 C.3 0 **** 0
26125 C 102.438 136.093 76.2836 C.3 0 **** 0
26126 C 98.7569 137.128 75.7391 C.3 0 **** 0
26127 C 100.275 137.347 75.8838 C.3 0 **** 0
26128 C 96.2224 137.601 74.1462 C.3 0 **** 0
26129 C 96.6212 138.326 75.4707 C.3 0 **** 0
26130 C 98.135 138.545 75.6478 C.3 0 **** 0
26131 O 95.5751 135.58 72.0582 O.3 0 **** -0.32
26132 C 94.7606 134.409 72.0205 C.3 0 **** 0.107
26133 C 95.6338 133.15 71.7146 C.3 0 **** -0.053
26134 C 97.0141 133.573 71.2162 C.3 0 **** 0.107
26135 C 94.9365 132.244 70.6894 C.3 0 **** -0.106
26136 C 93.4253 132.186 70.979 C.3 0 **** -0.106
26137 C 92.7655 133.542 70.662 C.3 0 **** 0.134
26138 C 93.7133 134.73 70.9751 C.3 0 **** -0.053
26139 C 92.9374 136.008 71.381 C.3 0 **** -0.106
26140 C 91.6347 136.092 70.5961 C.3 0 **** -0.106
26141 C 90.741 134.845 70.8764 C.3 0 **** 0.081
26142 N 91.4821 133.667 71.3231 N.3 0 **** -0.727
26143 C 102.685 136.92 77.5739 C.3 0 **** 0.16
26144 C 102.053 138.292 77.407 C.3 0 **** 0.16
26145 C 100.57 138.109 77.2538 C.3 0 **** 0
26146 O 102.319 139.198 78.4564 O.3 0 **** -0.32
26147 C 103.716 139.219 78.7299 C.3 0 **** 0.107
26148 C 104.163 137.839 79.104 C.3 0 **** 0.107
26149 O 104.051 137.033 77.9432 O.3 0 **** -0.32
26150 C 103.347 137.257 80.2878 C.3 0 **** -0.106
26151 C 102.806 138.376 81.2233 C.3 0 **** -0.106
26152 C 103.777 139.573 81.2347 C.3 0 **** -0.106
26153 C 103.913 140.229 79.8315 C.3 0 **** -0.106
26154 C 98.4078 139.364 76.9876 C.3 0 **** 0
26155 C 99.9506 139.542 77.1564 C.3 0 **** -0.053
26156 C 95.9617 139.715 75.4821 C.3 0 **** 0
26157 C 96.3206 140.526 76.7433 C.3 0 **** 0.16
26158 C 97.7672 140.739 76.9584 C.3 0 **** -0.053
26159 C 94.407 139.452 75.3926 C.3 0 **** 0
26160 C 94.0536 138.668 74.063 C.3 0 **** 0
26161 C 94.7027 137.281 74.1855 C.3 0 **** -0.053
26162 O 95.6834 141.754 76.8756 O.3 0 **** -0.32
26163 C 94.2965 141.593 76.6004 C.3 0 **** 0.16
26164 C 93.8788 140.876 75.2483 C.3 0 **** 0
26165 C 92.5353 138.52 73.7651 C.3 0 **** -0.053
26166 C 91.8581 139.882 73.9086 C.3 0 **** -0.053
26167 C 92.3559 140.729 75.1388 C.3 0 **** 0
26168 C 90.4056 139.711 74.1961 C.3 0 **** -0.053
26169 C 89.8292 138.578 73.3885 C.3 0 **** -0.106
26170 C 90.4153 137.243 73.9299 C.3 0 **** -0.106
26171 C 91.7931 137.448 74.5923 C.3 0 **** -0.106
26172 C 91.7809 142.124 75.057 C.3 0 **** 0
26173 C 92.2486 143.054 76.2156 C.3 0 **** 0
26174 C 93.7109 142.978 76.647 C.3 0 **** 0
26175 C 89.8355 141.078 73.8279 C.3 0 **** 0
26176 C 90.2784 142.109 74.8825 C.3 0 **** 0
26177 C 105.015 124.366 75.8141 C.3 0 **** -0.053
26178 C 103.897 125.347 76.1967 C.3 0 **** -0.159
26179 C 104.476 122.931 75.7981 C.3 0 **** -0.159
26180 O 97.781 132.44 70.831 O.3 0 **** -0.57
26181 C 94.4082 144.13 77.4242 C.3 0 **** -0.053
26182 C 93.4775 145.202 77.9995 C.3 0 **** -0.053
26183 C 92.3816 145.558 76.9788 C.3 0 **** 0
26184 C 91.5119 144.341 76.5355 C.3 0 **** 0
26185 C 90.2731 144.541 75.6801 C.3 0 **** 0
26186 C 89.6329 145.897 75.7194 C.3 0 **** 0
26187 C 90.2471 146.947 76.6786 C.3 0 **** 0
26188 C 91.4715 146.638 77.5731 C.3 0 **** -0.053
26189 C 89.4995 148.253 76.9103 C.3 0 **** -0.053
26190 C 88.0668 148.384 76.3486 C.3 0 **** -0.053
26191 C 87.6354 147.404 75.2141 C.3 0 **** 0
26192 C 88.1121 145.943 75.4319 C.3 0 **** 0
26193 C 87.7475 145.014 74.2088 C.3 0 **** 0
26194 C 88.2487 143.544 74.4707 C.3 0 **** 0
26195 C 89.7811 143.523 74.6447 C.3 0 **** 0
26196 C 86.2002 145.041 73.9971 C.3 0 **** 0
26197 C 85.7537 146.53 73.7517 C.3 0 **** -0.053
26198 C 86.1219 147.445 74.936 C.3 0 **** -0.053
26199 C 88.3037 141.109 73.6475 C.3 0 **** -0.053
26200 C 87.9262 142.605 73.2396 C.3 0 **** 0
26201 C 85.8169 144.131 72.7428 C.3 0 **** 0.02
26202 C 86.3905 142.678 72.8867 C.3 0 **** 0
26203 C 86.0235 141.627 71.8114 C.3 0 **** -0.106
26204 C 85.1005 142.244 70.7986 C.3 0 **** -0.106
26205 C 83.9487 142.954 71.5014 C.3 0 **** -0.086
26206 C 84.3217 144.03 72.4532 C.2 0 **** 0.379
26207 O 83.471 144.795 72.8745 O.2 0 **** -0.419
26208 H 109.053 125.465 80.4119 H 0 **** 0.053
26209 H 109.269 127.017 79.6072 H 0 **** 0.053
26210 H 110.714 124.408 79.0767 H 0 **** 0.053
26211 H 110.461 125.779 78.008 H 0 **** 0.053
26212 H 112.589 125.394 80.1683 H 0 **** 0.053
26213 H 113.303 127.739 79.8614 H 0 **** 0.053
26214 H 110.778 128.624 80.7972 H 0 **** 0.053
26215 H 112.006 127.844 81.7878 H 0 **** 0.053
26216 H 110.69 128.311 78.4646 H 0 **** 0.053
26217 H 111.503 127.122 76.6157 H 0 **** 0.053
26218 H 114.297 127.474 77.7449 H 0 **** 0.053
26219 H 113.912 126.587 76.2659 H 0 **** 0.053
26220 H 114.121 125.175 78.464 H 0 **** 0.053
26221 H 112.719 124.863 77.4475 H 0 **** 0.053
26222 H 111.975 130.47 75.2779 H 0 **** 0.053
26223 H 112.937 131.21 77.2003 H 0 **** 0.053
26224 H 111.79 130.197 79.5631 H 0 **** 0.053
26225 H 113.331 129.761 78.812 H 0 **** 0.053
26226 H 109.981 128.62 76.6875 H 0 **** 0.053
26227 H 108.112 134.415 78.488 H 0 **** 0.053
26228 H 108.629 133.029 79.486 H 0 **** 0.053
26229 H 110.538 134.66 79.3324 H 0 **** 0.053
26230 H 110.325 134.761 77.577 H 0 **** 0.053
26231 H 112.29 133.204 78.5047 H 0 **** 0.1268
26232 H 108.475 127.493 75.4607 H 0 **** 0.053
26233 H 110.319 129.029 71.4358 H 0 **** 0.053
26234 H 111.232 127.523 71.814 H 0 **** 0.053
26235 H 111.798 129.226 73.5667 H 0 **** 0.1268
26236 H 109.301 127.032 70.0616 H 0 **** 0.053
26237 H 109.355 125.586 71.0993 H 0 **** 0.053
26238 H 107.137 125.628 69.9879 H 0 **** 0.053
26239 H 106.876 127.309 70.4982 H 0 **** 0.053
26240 H 107.408 125.686 75.336 H 0 **** 0.053
26241 H 106.049 126.774 75.0531 H 0 **** 0.053
26242 H 106.351 123.862 74.2053 H 0 **** 0.053
26243 H 104.17 125.883 73.4737 H 0 **** 0.053
26244 H 103.989 124.142 73.2303 H 0 **** 0.053
26245 H 104.854 125.444 71.1852 H 0 **** 0.053
26246 H 105.828 124.034 71.6753 H 0 **** 0.053
26247 H 106.086 128.452 73.2136 H 0 **** 0.053
26248 H 101.267 130.871 72.5804 H 0 **** 0.053
26249 H 99.244 132.055 72.3996 H 0 **** 0.053
26250 H 104.893 135.279 77.5038 H 0 **** 0.053
26251 H 94.268 134.297 73.001 H 0 **** 0.053
26252 H 95.7466 132.548 72.6397 H 0 **** 0.053
26253 H 96.879 134.216 70.3574 H 0 **** 0.053
26254 H 95.1001 132.647 69.6662 H 0 **** 0.053
26255 H 95.3984 131.23 70.7012 H 0 **** 0.053
26256 H 93.3042 131.944 72.0479 H 0 **** 0.053
26257 H 92.9308 131.382 70.4127 H 0 **** 0.053
26258 H 92.5766 133.561 69.5764 H 0 **** 0.053
26259 H 94.2909 134.962 70.0565 H 0 **** 0.053
26260 H 92.6779 135.925 72.4467 H 0 **** 0.053
26261 H 93.5679 136.906 71.2567 H 0 **** 0.053
26262 H 91.8962 136.149 69.5238 H 0 **** 0.053
26263 H 91.0883 137.023 70.8225 H 0 **** 0.053
26264 H 90.1886 134.579 69.9612 H 0 **** 0.053
26265 H 89.9707 135.09 71.6284 H 0 **** 0.053
26266 H 91.6297 133.705 72.312 H 0 **** 0.353
26267 H 104.226 139.511 77.8123 H 0 **** 0.053
26268 H 105.211 137.861 79.3912 H 0 **** 0.053
26269 H 102.484 136.651 79.9397 H 0 **** 0.053
26270 H 103.96 136.545 80.8805 H 0 **** 0.053
26271 H 102.64 137.986 82.2482 H 0 **** 0.053
26272 H 101.813 138.715 80.8643 H 0 **** 0.053
26273 H 104.768 139.195 81.5437 H 0 **** 0.053
26274 H 103.47 140.325 81.9836 H 0 **** 0.053
26275 H 104.873 140.771 79.7519 H 0 **** 0.053
26276 H 103.11 140.992 79.71 H 0 **** 0.053
26277 H 100.14 140.132 78.1182 H 0 **** 0.053
26278 H 98.03 141.321 77.8665 H 0 **** 0.053
26279 H 94.3821 136.686 73.2841 H 0 **** 0.053
26280 H 92.5007 138.215 72.7283 H 0 **** 0.053
26281 H 92.0359 140.454 72.9769 H 0 **** 0.053
26282 H 90.2119 139.509 75.2711 H 0 **** 0.053
26283 H 90.109 138.725 72.3281 H 0 **** 0.053
26284 H 88.7195 138.518 73.42 H 0 **** 0.053
26285 H 90.5185 136.516 73.0991 H 0 **** 0.053
26286 H 89.7058 136.787 74.6472 H 0 **** 0.053
26287 H 92.339 136.489 74.6391 H 0 **** 0.053
26288 H 91.6837 137.799 75.6269 H 0 **** 0.053
26289 H 105.79 124.414 76.6034 H 0 **** 0.053
26290 H 103.513 125.129 77.2058 H 0 **** 0.053
26291 H 103.052 125.271 75.4927 H 0 **** 0.053
26292 H 104.24 126.394 76.1935 H 0 **** 0.053
26293 H 105.277 122.206 75.5817 H 0 **** 0.053
26294 H 103.697 122.811 75.0287 H 0 **** 0.053
26295 H 104.035 122.662 76.7702 H 0 **** 0.053
26296 H 98.6207 132.787 70.5354 H 0 **** 0.41
26297 H 95.3142 143.846 78.0303 H 0 **** 0.053
26298 H 94.0528 146.104 78.3492 H 0 **** 0.053
26299 H 92.0139 147.563 77.9099 H 0 **** 0.053
26300 H 89.9625 149.056 77.5391 H 0 **** 0.053
26301 H 87.6268 149.412 76.3384 H 0 **** 0.053
26302 H 84.6559 146.623 73.5339 H 0 **** 0.053
26303 H 85.7603 148.492 74.8141 H 0 **** 0.053
26304 H 87.9666 140.379 72.826 H 0 **** 0.053
26305 H 86.9249 141.211 71.3286 H 0 **** 0.053
26306 H 85.5481 140.83 72.3801 H 0 **** 0.053
26307 H 84.7151 141.477 70.1296 H 0 **** 0.053
26308 H 85.6728 142.96 70.1741 H 0 **** 0.053
26309 H 83.3815 142.259 72.1259 H 0 **** 0.053
26310 H 83.2645 143.489 70.8467 H 0 **** 0.053
26311 C 192.79 164.138 43.3047 C.3 0 **** 0.054
26312 C 193.12 164.369 44.8074 C.3 0 **** -0.106
26313 C 193.851 163.14 45.4155 C.3 0 **** -0.053
26314 C 193.201 161.855 44.8479 C.3 0 **** -0.053
26315 C 193.285 161.856 43.2918 C.3 0 **** 0.054
26316 O 193.619 163.128 42.754 O.3 0 **** -0.32
26317 C 191.731 161.711 45.3399 C.3 0 **** -0.053
26318 C 191.537 162.205 46.8243 C.3 0 **** 0.107
26319 C 192.864 162.178 47.5729 C.3 0 **** -0.106
26320 C 193.888 163.15 46.9641 C.3 0 **** -0.106
26321 O 190.607 161.427 47.5863 O.3 0 **** -0.32
26322 C 189.463 161.111 46.8087 C.3 0 **** 0.107
26323 C 189.872 159.979 45.8288 C.3 0 **** -0.053
26324 C 191.251 160.255 45.1765 C.3 0 **** -0.106
26325 C 188.843 159.634 44.7823 C.2 0 **** 0
26326 C 188.002 160.796 44.2724 C.3 0 **** 0
26327 C 187.661 161.873 45.3022 C.3 0 **** 0
26328 C 188.802 162.344 46.1956 C.3 0 **** -0.053
26329 C 186.837 163.023 44.7583 C.3 0 **** 0
26330 C 185.576 162.507 44.0745 C.3 0 **** 0
26331 C 185.994 161.47 42.9659 C.3 0 **** 0.16
26332 C 186.78 160.304 43.5229 C.3 0 **** 0
26333 C 187.058 159.188 42.4791 C.3 0 **** -0.106
26334 C 187.527 158.007 43.3153 C.3 0 **** -0.106
26335 C 188.611 158.383 44.32 C.2 0 **** -0.1268
26336 O 185.038 161.072 41.9586 O.3 0 **** -0.32
26337 C 183.769 161.655 42.1606 C.3 0 **** 0.16
26338 C 183.747 163.196 42.4323 C.3 0 **** 0
26339 C 184.778 163.696 43.4751 C.3 0 **** 0
26340 C 188.265 163.325 47.205 C.2 0 **** 0
26341 C 187.803 164.6 46.5566 C.3 0 **** -0.053
26342 C 186.541 164.144 45.7698 C.3 0 **** 0
26343 C 187.384 165.735 47.4643 C.2 0 **** 0
26344 C 187.112 165.444 48.7638 C.2 0 **** 0
26345 C 187.37 164.085 49.3974 C.3 0 **** -0.106
26346 C 188.07 163.081 48.4959 C.2 0 **** -0.1268
26347 C 186.717 166.532 49.7354 C.3 0 **** -0.106
26348 C 185.884 167.577 49.0082 C.3 0 **** -0.106
26349 C 186.576 167.952 47.7092 C.2 0 **** 0
26350 C 187.303 167.025 47.0057 C.2 0 **** 0
26351 C 187.931 167.421 45.6826 C.3 0 **** -0.106
26352 C 188.031 168.926 45.4768 C.3 0 **** -0.053
26353 C 186.664 169.572 45.7575 C.3 0 **** -0.106
26354 C 186.287 169.358 47.2277 C.3 0 **** -0.106
26355 C 184.383 164.675 44.5879 C.3 0 **** 0.147
26356 C 185.648 165.272 45.186 C.3 0 **** -0.053
26357 C 182.347 163.805 42.5721 C.3 0 **** 0
26358 C 182.283 165.308 42.8751 C.3 0 **** 0.147
26359 S 183.287 166.053 44.1375 S.3 0 **** -0.294
26360 C 180.9 165.896 42.8802 C.3 0 **** -0.053
26361 C 180.21 165.551 41.5533 C.3 0 **** 0
26362 C 180.174 163.996 41.2954 C.3 0 **** 0
26363 C 181.612 163.44 41.2519 C.3 0 **** 0
26364 C 179.471 163.736 39.9713 C.3 0 **** 0
26365 C 178.061 164.288 40.0315 C.3 0 **** 0
26366 C 178.006 165.843 40.3418 C.3 0 **** 0
26367 C 178.763 166.124 41.6906 C.3 0 **** -0.053
26368 C 176.508 166.229 40.4975 C.3 0 **** 0
26369 C 175.876 166.098 39.1292 C.3 0 **** 0.16
26370 C 176.028 164.697 38.5308 C.3 0 **** 0
26371 C 177.18 163.811 38.9098 C.3 0 **** 0
26372 C 181.704 161.938 40.8718 C.3 0 **** 0
26373 C 183.135 161.411 40.8153 C.3 0 **** -0.053
26374 C 179.653 162.344 39.3281 C.3 0 **** 0
26375 C 180.636 161.332 39.922 C.3 0 **** 0
26376 C 177.62 162.712 37.9433 C.3 0 **** 0
26377 C 178.443 161.65 38.6968 C.3 0 **** 0
26378 C 174.973 164.14 37.5742 C.3 0 **** 0
26379 C 175.552 163.028 36.6431 C.3 0 **** 0
26380 C 176.391 161.96 37.3691 C.3 0 **** 0
26381 O 174.558 166.599 39.1998 O.3 0 **** -0.32
26382 C 174.75 167.994 38.9673 C.3 0 **** 0.107
26383 C 175.8 168.573 39.9705 C.3 0 **** -0.053
26384 C 176.051 167.579 41.1025 C.3 0 **** 0.107
26385 C 175.33 169.926 40.525 C.3 0 **** -0.106
26386 C 174.67 170.753 39.4064 C.3 0 **** -0.106
26387 C 173.324 170.126 38.997 C.3 0 **** 0.134
26388 C 173.358 168.577 39.0917 C.3 0 **** -0.053
26389 C 172.412 167.905 38.0656 C.3 0 **** -0.106
26390 C 171.163 168.758 37.8802 C.3 0 **** -0.106
26391 C 171.539 170.181 37.3675 C.3 0 **** 0.081
26392 N 172.904 170.592 37.6906 N.3 0 **** -0.727
26393 C 181.05 160.232 38.9074 C.3 0 **** 0.16
26394 C 179.797 159.54 38.3943 C.3 0 **** 0.16
26395 C 178.968 160.556 37.6613 C.3 0 **** 0
26396 O 180.035 158.424 37.5633 O.3 0 **** -0.32
26397 C 180.979 157.557 38.1825 C.3 0 **** 0.107
26398 C 182.251 158.31 38.4247 C.3 0 **** 0.107
26399 O 181.978 159.287 39.4157 O.3 0 **** -0.32
26400 C 182.813 158.95 37.1283 C.3 0 **** -0.106
26401 C 182.401 158.146 35.8613 C.3 0 **** -0.106
26402 C 182.268 156.649 36.2031 C.3 0 **** -0.106
26403 C 181.148 156.385 37.2488 C.3 0 **** -0.106
26404 C 176.853 160.842 36.3327 C.3 0 **** 0
26405 C 177.728 159.792 37.0904 C.3 0 **** -0.053
26406 C 174.378 162.296 35.972 C.3 0 **** 0
26407 C 174.847 161.153 35.0496 C.3 0 **** 0.16
26408 C 175.674 160.119 35.707 C.3 0 **** -0.053
26409 C 173.591 163.401 35.1619 C.3 0 **** 0
26410 C 173.07 164.535 36.1353 C.3 0 **** 0
26411 C 174.315 165.24 36.6958 C.3 0 **** -0.053
26412 O 173.849 160.508 34.329 O.3 0 **** -0.32
26413 C 172.991 161.481 33.7439 C.3 0 **** 0.16
26414 C 172.381 162.604 34.6836 C.3 0 **** 0
26415 C 172.116 165.577 35.4868 C.3 0 **** -0.053
26416 C 171.025 164.846 34.7078 C.3 0 **** -0.053
26417 C 171.534 163.603 33.8856 C.3 0 **** 0
26418 C 170.462 165.73 33.6478 C.3 0 **** -0.053
26419 C 170.32 167.143 34.1491 C.3 0 **** -0.106
26420 C 171.743 167.743 34.3361 C.3 0 **** -0.106
26421 C 172.795 166.648 34.606 C.3 0 **** -0.106
26422 C 170.351 162.842 33.3365 C.3 0 **** 0
26423 C 170.753 161.567 32.5362 C.3 0 **** 0
26424 C 171.883 160.703 33.0905 C.3 0 **** 0
26425 C 169.131 165.055 33.3295 C.3 0 **** 0
26426 C 169.401 163.74 32.5759 C.3 0 **** 0
26427 C 188.626 169.28 44.0891 C.3 0 **** -0.053
26428 C 187.643 169.042 42.9334 C.3 0 **** -0.159
26429 C 189.14 170.724 44.0552 C.3 0 **** -0.159
26430 O 176.921 168.136 42.0793 O.3 0 **** -0.57
26431 C 172.066 159.214 32.6814 C.3 0 **** -0.053
26432 C 171.249 158.752 31.4706 C.3 0 **** -0.053
26433 C 169.823 159.328 31.5397 C.3 0 **** 0
26434 C 169.774 160.887 31.5986 C.3 0 **** 0
26435 C 168.453 161.628 31.484 C.3 0 **** 0
26436 C 167.326 160.905 30.8088 C.3 0 **** 0
26437 C 167.626 159.5 30.2283 C.3 0 **** 0
26438 C 169.024 158.844 30.3249 C.3 0 **** -0.053
26439 C 166.578 158.832 29.3493 C.3 0 **** -0.053
26440 C 165.359 159.668 28.9028 C.3 0 **** -0.053
26441 C 165.019 160.955 29.7162 C.3 0 **** 0
26442 C 166.264 161.792 30.1135 C.3 0 **** 0
26443 C 165.882 163.022 31.0255 C.3 0 **** 0
26444 C 167.172 163.843 31.405 C.3 0 **** 0
26445 C 168.159 162.956 32.1908 C.3 0 **** 0
26446 C 164.861 163.922 30.259 C.3 0 **** 0
26447 C 163.6 163.052 29.8956 C.3 0 **** -0.053
26448 C 163.97 161.84 29.0189 C.3 0 **** -0.053
26449 C 168.134 165.936 32.5471 C.3 0 **** -0.053
26450 C 166.815 165.06 32.3503 C.3 0 **** 0
26451 C 164.439 165.155 31.1806 C.3 0 **** 0.02
26452 C 165.692 165.95 31.6917 C.3 0 **** 0
26453 C 165.464 167.243 32.5106 C.3 0 **** -0.106
26454 C 163.991 167.513 32.6272 C.3 0 **** -0.106
26455 C 163.332 167.433 31.2547 C.3 0 **** -0.086
26456 C 163.476 166.145 30.5306 C.2 0 **** 0.379
26457 O 162.794 165.919 29.5456 O.2 0 **** -0.419
26458 H 192.969 165.049 42.7181 H 0 **** 0.053
26459 H 191.725 163.889 43.1742 H 0 **** 0.053
26460 H 193.752 165.267 44.9541 H 0 **** 0.053
26461 H 192.191 164.578 45.3697 H 0 **** 0.053
26462 H 194.886 163.173 45.0377 H 0 **** 0.053
26463 H 193.755 160.987 45.2513 H 0 **** 0.053
26464 H 192.348 161.485 42.8423 H 0 **** 0.053
26465 H 194.078 161.178 42.9575 H 0 **** 0.053
26466 H 191.12 162.335 44.6638 H 0 **** 0.053
26467 H 191.196 163.257 46.8173 H 0 **** 0.053
26468 H 193.243 161.139 47.5432 H 0 **** 0.053
26469 H 192.676 162.408 48.6336 H 0 **** 0.053
26470 H 194.893 162.888 47.3217 H 0 **** 0.053
26471 H 193.682 164.165 47.333 H 0 **** 0.053
26472 H 188.747 160.656 47.4954 H 0 **** 0.053
26473 H 189.986 159.073 46.4338 H 0 **** 0.053
26474 H 191.295 159.961 44.1048 H 0 **** 0.053
26475 H 191.989 159.618 45.6951 H 0 **** 0.053
26476 H 189.502 162.91 45.5622 H 0 **** 0.053
26477 H 186.128 158.945 41.9274 H 0 **** 0.053
26478 H 187.807 159.515 41.7279 H 0 **** 0.053
26479 H 187.861 157.186 42.6755 H 0 **** 0.053
26480 H 186.659 157.641 43.8942 H 0 **** 0.053
26481 H 189.222 157.548 44.6486 H 0 **** 0.1268
26482 H 188.582 164.941 45.832 H 0 **** 0.053
26483 H 186.4 163.639 49.7698 H 0 **** 0.053
26484 H 188.013 164.229 50.3118 H 0 **** 0.053
26485 H 188.371 162.146 48.9598 H 0 **** 0.1268
26486 H 186.176 166.119 50.6139 H 0 **** 0.053
26487 H 187.648 166.989 50.1172 H 0 **** 0.053
26488 H 185.712 168.467 49.6464 H 0 **** 0.053
26489 H 184.886 167.161 48.7692 H 0 **** 0.053
26490 H 188.947 167.002 45.6382 H 0 **** 0.053
26491 H 187.377 166.972 44.8355 H 0 **** 0.053
26492 H 188.743 169.309 46.2368 H 0 **** 0.053
26493 H 185.902 169.109 45.1107 H 0 **** 0.053
26494 H 186.665 170.647 45.5269 H 0 **** 0.053
26495 H 185.213 169.613 47.3846 H 0 **** 0.053
26496 H 186.871 170.066 47.8581 H 0 **** 0.053
26497 H 185.355 166.057 45.9646 H 0 **** 0.053
26498 H 180.837 167.003 43.1073 H 0 **** 0.053
26499 H 178.892 167.247 41.8092 H 0 **** 0.053
26500 H 183.218 160.305 40.5991 H 0 **** 0.053
26501 H 175.106 168.128 37.9318 H 0 **** 0.053
26502 H 176.752 168.767 39.4345 H 0 **** 0.053
26503 H 175.102 167.349 41.5657 H 0 **** 0.053
26504 H 174.594 169.757 41.3409 H 0 **** 0.053
26505 H 176.187 170.466 40.9875 H 0 **** 0.053
26506 H 175.363 170.759 38.5494 H 0 **** 0.053
26507 H 174.524 171.802 39.7059 H 0 **** 0.053
26508 H 172.573 170.474 39.7245 H 0 **** 0.053
26509 H 173.019 168.286 40.1072 H 0 **** 0.053
26510 H 172.933 167.865 37.0975 H 0 **** 0.053
26511 H 172.179 166.869 38.3665 H 0 **** 0.053
26512 H 170.655 168.819 38.8596 H 0 **** 0.053
26513 H 170.444 168.274 37.1976 H 0 **** 0.053
26514 H 170.845 170.92 37.8001 H 0 **** 0.053
26515 H 171.396 170.243 36.2746 H 0 **** 0.053
26516 H 173.543 170.245 37.0028 H 0 **** 0.353
26517 H 180.567 157.256 39.1452 H 0 **** 0.053
26518 H 183.003 157.635 38.8242 H 0 **** 0.053
26519 H 182.469 159.997 36.9991 H 0 **** 0.053
26520 H 183.92 159.028 37.1711 H 0 **** 0.053
26521 H 183.128 158.306 35.0398 H 0 **** 0.053
26522 H 181.429 158.521 35.4812 H 0 **** 0.053
26523 H 183.231 156.318 36.6282 H 0 **** 0.053
26524 H 182.093 156.048 35.2918 H 0 **** 0.053
26525 H 181.335 155.434 37.781 H 0 **** 0.053
26526 H 180.177 156.261 36.7159 H 0 **** 0.053
26527 H 178.055 158.991 36.3424 H 0 **** 0.053
26528 H 176.016 159.296 35.0461 H 0 **** 0.053
26529 H 173.952 166.105 37.3195 H 0 **** 0.053
26530 H 171.669 166.084 36.3314 H 0 **** 0.053
26531 H 170.252 164.513 35.4285 H 0 **** 0.053
26532 H 171.095 165.745 32.7348 H 0 **** 0.053
26533 H 169.777 167.121 35.1129 H 0 **** 0.053
26534 H 169.74 167.808 33.4721 H 0 **** 0.053
26535 H 171.739 168.457 35.184 H 0 **** 0.053
26536 H 172.02 168.333 33.4415 H 0 **** 0.053
26537 H 173.69 167.09 35.0811 H 0 **** 0.053
26538 H 173.133 166.187 33.6684 H 0 **** 0.053
26539 H 189.499 168.62 43.9295 H 0 **** 0.053
26540 H 188.138 169.192 41.9607 H 0 **** 0.053
26541 H 186.795 169.744 42.9898 H 0 **** 0.053
26542 H 187.229 168.02 42.9389 H 0 **** 0.053
26543 H 189.891 170.898 44.8424 H 0 **** 0.053
26544 H 188.317 171.439 44.2106 H 0 **** 0.053
26545 H 189.61 170.955 43.0871 H 0 **** 0.053
26546 H 177.027 167.459 42.7448 H 0 **** 0.41
26547 H 173.1 158.785 32.8069 H 0 **** 0.053
26548 H 171.258 157.632 31.3691 H 0 **** 0.053
26549 H 168.994 157.727 30.2093 H 0 **** 0.053
26550 H 166.744 157.787 28.9825 H 0 **** 0.053
26551 H 164.506 159.103 28.4502 H 0 **** 0.053
26552 H 162.794 163.648 29.3904 H 0 **** 0.053
26553 H 163.086 161.243 28.6955 H 0 **** 0.053
26554 H 167.887 166.898 33.1251 H 0 **** 0.053
26555 H 165.939 167.18 33.5058 H 0 **** 0.053
26556 H 165.987 168.007 31.9376 H 0 **** 0.053
26557 H 163.826 168.497 33.0646 H 0 **** 0.053
26558 H 163.539 166.772 33.3175 H 0 **** 0.053
26559 H 163.775 168.155 30.5635 H 0 **** 0.053
26560 H 162.251 167.549 31.2514 H 0 **** 0.053
26561 C 155.901 121.257 107.663 C.3 0 **** 0.054
26562 C 154.899 121.207 108.852 C.3 0 **** -0.106
26563 C 155.002 119.857 109.614 C.3 0 **** -0.053
26564 C 155.19 118.723 108.578 C.3 0 **** -0.053
26565 C 156.462 118.992 107.718 C.3 0 **** 0.054
26566 O 156.949 120.32 107.845 O.3 0 **** -0.32
26567 C 153.922 118.567 107.688 C.3 0 **** -0.053
26568 C 152.585 118.804 108.489 C.3 0 **** 0.107
26569 C 152.812 118.582 109.98 C.3 0 **** -0.106
26570 C 153.809 119.595 110.567 C.3 0 **** -0.106
26571 O 151.505 117.951 108.096 O.3 0 **** -0.32
26572 C 151.45 117.831 106.683 C.3 0 **** 0.107
26573 C 152.592 116.869 106.259 C.3 0 **** -0.053
26574 C 153.916 117.187 107.001 C.3 0 **** -0.106
26575 C 152.823 116.762 104.774 C.2 0 **** 0
26576 C 152.582 118.034 103.972 C.3 0 **** 0
26577 C 151.449 118.929 104.472 C.3 0 **** 0
26578 C 151.393 119.182 105.974 C.3 0 **** -0.053
26579 C 151.246 120.194 103.662 C.3 0 **** 0
26580 C 151.069 119.867 102.184 C.3 0 **** 0
26581 C 152.308 119.022 101.705 C.3 0 **** 0.16
26582 C 152.478 117.74 102.489 C.3 0 **** 0
26583 C 153.587 116.81 101.927 C.3 0 **** -0.106
26584 C 153.347 115.48 102.625 C.3 0 **** -0.106
26585 C 153.18 115.623 104.134 C.2 0 **** -0.1268
26586 O 152.555 118.849 100.292 O.3 0 **** -0.32
26587 C 151.559 119.45 99.493 C.3 0 **** 0.16
26588 C 151.163 120.919 99.8603 C.3 0 **** 0
26589 C 150.922 121.179 101.368 C.3 0 **** 0
26590 C 150.166 119.997 106.291 C.2 0 **** 0
26591 C 150.254 121.386 105.724 C.3 0 **** -0.053
26592 C 150.15 121.135 104.192 C.3 0 **** 0
26593 C 149.162 122.364 106.097 C.2 0 **** 0
26594 C 148.009 121.865 106.614 C.2 0 **** 0
26595 C 147.818 120.405 106.999 C.3 0 **** -0.106
26596 C 149.061 119.541 106.87 C.2 0 **** -0.1268
26597 C 146.887 122.785 107.037 C.3 0 **** -0.106
26598 C 146.834 123.979 106.096 C.3 0 **** -0.106
26599 C 148.235 124.54 105.924 C.2 0 **** 0
26600 C 149.332 123.716 105.946 C.2 0 **** 0
26601 C 150.71 124.306 105.712 C.3 0 **** -0.106
26602 C 150.769 125.817 105.885 C.3 0 **** -0.053
26603 C 149.643 126.47 105.065 C.3 0 **** -0.106
26604 C 148.284 126.021 105.612 C.3 0 **** -0.106
26605 C 149.703 121.968 101.859 C.3 0 **** 0.147
26606 C 149.94 122.39 103.302 C.3 0 **** -0.053
26607 C 150.134 121.565 98.9253 C.3 0 **** 0
26608 C 149.7 122.995 99.2697 C.3 0 **** 0.147
26609 S 149.226 123.448 100.92 S.3 0 **** -0.294
26610 C 148.78 123.631 98.2686 C.3 0 **** -0.053
26611 C 149.435 123.558 96.8833 C.3 0 **** 0
26612 C 149.786 122.076 96.4749 C.3 0 **** 0
26613 C 150.759 121.467 97.5055 C.3 0 **** 0
26614 C 150.425 122.086 95.0932 C.3 0 **** 0
26615 C 149.455 122.685 94.0937 C.3 0 **** 0
26616 C 149.01 124.164 94.4597 C.3 0 **** 0
26617 C 148.383 124.168 95.9027 C.3 0 **** -0.053
26618 C 147.931 124.588 93.4238 C.3 0 **** 0
26619 C 148.633 124.729 92.0906 C.3 0 **** 0.16
26620 C 149.344 123.445 91.6526 C.3 0 **** 0
26621 C 149.852 122.456 92.6614 C.3 0 **** 0
26622 C 151.279 120.052 97.135 C.3 0 **** 0
26623 C 152.253 119.474 98.1553 C.3 0 **** -0.053
26624 C 151.193 120.819 94.6538 C.3 0 **** 0
26625 C 151.436 119.672 95.6382 C.3 0 **** 0
26626 C 150.997 121.52 92.2748 C.3 0 **** 0
26627 C 151.024 120.305 93.2211 C.3 0 **** 0
26628 C 149.514 123.117 90.1688 C.3 0 **** 0
26629 C 150.719 122.157 89.9119 C.3 0 **** 0
26630 C 150.777 120.94 90.8534 C.3 0 **** 0
26631 O 147.717 125.272 91.1639 O.3 0 **** -0.32
26632 C 147.864 126.675 91.3783 C.3 0 **** 0.107
26633 C 147.655 127.019 92.8883 C.3 0 **** -0.053
26634 C 147.03 125.832 93.6176 C.3 0 **** 0.107
26635 C 146.785 128.276 93.0424 C.3 0 **** -0.106
26636 C 147.17 129.316 91.974 C.3 0 **** -0.106
26637 C 146.737 128.835 90.576 C.3 0 **** 0.134
26638 C 146.852 127.294 90.4361 C.3 0 **** -0.053
26639 C 147.153 126.858 88.9805 C.3 0 **** -0.106
26640 C 146.443 127.789 88.006 C.3 0 **** -0.106
26641 C 146.919 129.26 88.2032 C.3 0 **** 0.081
26642 N 147.455 129.541 89.5337 N.3 0 **** -0.727
26643 C 152.605 118.748 95.2024 C.3 0 **** 0.16
26644 C 152.318 118.217 93.8064 C.3 0 **** 0.16
26645 C 152.276 119.384 92.8612 C.3 0 **** 0
26646 O 153.236 117.253 93.3392 O.3 0 **** -0.32
26647 C 153.422 116.247 94.3291 C.3 0 **** 0.107
26648 C 153.927 116.884 95.5872 C.3 0 **** 0.107
26649 O 152.876 117.684 96.102 O.3 0 **** -0.32
26650 C 155.217 117.711 95.3514 C.3 0 **** -0.106
26651 C 156.046 117.162 94.1554 C.3 0 **** -0.106
26652 C 155.86 115.636 94.038 C.3 0 **** -0.106
26653 C 154.385 115.248 93.7373 C.3 0 **** -0.106
26654 C 151.994 119.998 90.4397 C.3 0 **** 0
26655 C 152.049 118.792 91.4311 C.3 0 **** -0.053
26656 C 150.61 121.61 88.4788 C.3 0 **** 0
26657 C 151.742 120.625 88.1347 C.3 0 **** 0.16
26658 C 151.846 119.456 89.03 C.3 0 **** -0.053
26659 C 150.643 122.876 87.5341 C.3 0 **** 0
26660 C 149.436 123.847 87.8649 C.3 0 **** 0
26661 C 149.68 124.383 89.2841 C.3 0 **** -0.053
26662 O 151.765 120.164 86.8255 O.3 0 **** -0.32
26663 C 151.598 121.263 85.9385 C.3 0 **** 0.16
26664 C 150.367 122.235 86.1778 C.3 0 **** 0
26665 C 149.249 125.031 86.8754 C.3 0 **** -0.053
26666 C 149.273 124.5 85.4434 C.3 0 **** -0.053
26667 C 150.365 123.397 85.1766 C.3 0 **** 0
26668 C 149.665 125.582 84.4957 C.3 0 **** -0.053
26669 C 149.031 126.891 84.8848 C.3 0 **** -0.106
26670 C 149.688 127.38 86.2076 C.3 0 **** -0.106
26671 C 150.238 126.205 87.0421 C.3 0 **** -0.106
26672 C 150.156 122.8 83.805 C.3 0 **** 0
26673 C 151.172 121.67 83.4649 C.3 0 **** 0
26674 C 151.51 120.663 84.5625 C.3 0 **** 0
26675 C 149.175 125.038 83.1563 C.3 0 **** 0
26676 C 150.074 123.863 82.7312 C.3 0 **** 0
26677 C 152.182 126.378 105.58 C.3 0 **** -0.053
26678 C 152.514 126.393 104.081 C.3 0 **** -0.159
26679 C 152.365 127.78 106.175 C.3 0 **** -0.159
26680 O 146.737 126.168 94.9669 O.3 0 **** -0.57
26681 C 152.115 119.266 84.2479 C.3 0 **** -0.053
26682 C 152.614 119.061 82.8139 C.3 0 **** -0.053
26683 C 151.625 119.683 81.8121 C.3 0 **** 0
26684 C 151.378 121.208 82.0335 C.3 0 **** 0
26685 C 150.583 122.022 81.0276 C.3 0 **** 0
26686 C 150.5 121.482 79.6301 C.3 0 **** 0
26687 C 151.295 120.188 79.3187 C.3 0 **** 0
26688 C 152.143 119.458 80.3876 C.3 0 **** -0.053
26689 C 151.414 119.732 77.871 C.3 0 **** -0.053
26690 C 150.93 120.692 76.7621 C.3 0 **** -0.053
26691 C 149.945 121.833 77.1639 C.3 0 **** 0
26692 C 150.302 122.527 78.5049 C.3 0 **** 0
26693 C 149.219 123.596 78.9232 C.3 0 **** 0
26694 C 149.62 124.275 80.2873 C.3 0 **** 0
26695 C 149.704 123.219 81.4077 C.3 0 **** 0
26696 C 149.099 124.664 77.7895 C.3 0 **** 0
26697 C 148.709 123.932 76.4515 C.3 0 **** -0.053
26698 C 149.755 122.875 76.047 C.3 0 **** -0.053
26699 C 149.084 126.088 82.0298 C.3 0 **** -0.053
26700 C 148.528 125.325 80.7433 C.3 0 **** 0
26701 C 147.984 125.737 78.1824 C.3 0 **** 0.02
26702 C 148.262 126.369 79.5918 C.3 0 **** 0
26703 C 147.34 127.509 80.0862 C.3 0 **** -0.106
26704 C 146.319 127.826 79.0299 C.3 0 **** -0.106
26705 C 147.002 128.018 77.6805 C.3 0 **** -0.086
26706 C 147.798 126.87 77.1772 C.2 0 **** 0.379
26707 O 148.178 126.852 76.0192 O.2 0 **** -0.419
26708 H 156.371 122.247 107.587 H 0 **** 0.053
26709 H 155.38 121.087 106.708 H 0 **** 0.053
26710 H 155.071 122.034 109.568 H 0 **** 0.053
26711 H 153.867 121.359 108.482 H 0 **** 0.053
26712 H 155.927 119.905 110.212 H 0 **** 0.053
26713 H 155.307 117.773 109.13 H 0 **** 0.053
26714 H 156.283 118.75 106.655 H 0 **** 0.053
26715 H 157.282 118.344 108.047 H 0 **** 0.053
26716 H 154.011 119.328 106.892 H 0 **** 0.053
26717 H 152.268 119.856 108.368 H 0 **** 0.053
26718 H 153.18 117.547 110.112 H 0 **** 0.053
26719 H 151.84 118.633 110.496 H 0 **** 0.053
26720 H 154.171 119.227 111.537 H 0 **** 0.053
26721 H 153.283 120.539 110.77 H 0 **** 0.053
26722 H 150.524 117.297 106.46 H 0 **** 0.053
26723 H 152.286 115.866 106.579 H 0 **** 0.053
26724 H 154.815 117.083 106.355 H 0 **** 0.053
26725 H 154.029 116.434 107.801 H 0 **** 0.053
26726 H 152.256 119.815 106.232 H 0 **** 0.053
26727 H 153.479 116.712 100.829 H 0 **** 0.053
26728 H 154.598 117.226 102.119 H 0 **** 0.053
26729 H 154.142 114.768 102.39 H 0 **** 0.053
26730 H 152.403 115.061 102.231 H 0 **** 0.053
26731 H 153.386 114.715 104.692 H 0 **** 0.1268
26732 H 151.261 121.809 105.957 H 0 **** 0.053
26733 H 146.981 119.949 106.39 H 0 **** 0.053
26734 H 147.478 120.357 108.073 H 0 **** 0.053
26735 H 148.983 118.526 107.25 H 0 **** 0.1268
26736 H 145.912 122.252 107.073 H 0 **** 0.053
26737 H 147.106 123.123 108.066 H 0 **** 0.053
26738 H 146.132 124.752 106.468 H 0 **** 0.053
26739 H 146.458 123.661 105.105 H 0 **** 0.053
26740 H 151.411 123.853 106.428 H 0 **** 0.053
26741 H 151.086 124.039 104.705 H 0 **** 0.053
26742 H 150.566 126.028 106.956 H 0 **** 0.053
26743 H 149.736 126.164 104.01 H 0 **** 0.053
26744 H 149.708 127.567 105.084 H 0 **** 0.053
26745 H 147.477 126.296 104.893 H 0 **** 0.053
26746 H 148.069 126.58 106.551 H 0 **** 0.053
26747 H 149.065 123.041 103.647 H 0 **** 0.053
26748 H 148.446 124.683 98.5105 H 0 **** 0.053
26749 H 148.247 125.245 96.2364 H 0 **** 0.053
26750 H 152.595 118.421 97.9338 H 0 **** 0.053
26751 H 148.878 126.971 91.0619 H 0 **** 0.053
26752 H 148.636 127.258 93.3496 H 0 **** 0.053
26753 H 146.111 125.572 93.1109 H 0 **** 0.053
26754 H 145.714 128.003 92.9223 H 0 **** 0.053
26755 H 146.887 128.685 94.0735 H 0 **** 0.053
26756 H 148.265 129.438 92.013 H 0 **** 0.053
26757 H 146.731 130.303 92.1889 H 0 **** 0.053
26758 H 145.67 129.088 90.4659 H 0 **** 0.053
26759 H 145.88 126.848 90.7306 H 0 **** 0.053
26760 H 148.235 126.962 88.81 H 0 **** 0.053
26761 H 146.888 125.797 88.8259 H 0 **** 0.053
26762 H 145.357 127.704 88.1966 H 0 **** 0.053
26763 H 146.591 127.466 86.9612 H 0 **** 0.053
26764 H 146.076 129.945 88.0193 H 0 **** 0.053
26765 H 147.682 129.518 87.4482 H 0 **** 0.053
26766 H 148.422 129.29 89.5792 H 0 **** 0.353
26767 H 152.448 115.803 94.533 H 0 **** 0.053
26768 H 154.146 116.114 96.3221 H 0 **** 0.053
26769 H 154.994 118.781 95.1535 H 0 **** 0.053
26770 H 155.851 117.728 96.263 H 0 **** 0.053
26771 H 157.118 117.427 94.2643 H 0 **** 0.053
26772 H 155.71 117.644 93.2154 H 0 **** 0.053
26773 H 156.152 115.19 95.0048 H 0 **** 0.053
26774 H 156.534 115.213 93.2705 H 0 **** 0.053
26775 H 154.185 114.211 94.0648 H 0 **** 0.053
26776 H 154.224 115.266 92.6349 H 0 **** 0.053
26777 H 152.923 118.118 91.1285 H 0 **** 0.053
26778 H 152.66 118.743 88.7893 H 0 **** 0.053
26779 H 148.876 125.143 89.4934 H 0 **** 0.053
26780 H 148.259 125.405 87.0982 H 0 **** 0.053
26781 H 148.272 124.085 85.214 H 0 **** 0.053
26782 H 150.766 125.725 84.4541 H 0 **** 0.053
26783 H 147.946 126.728 85.0263 H 0 **** 0.053
26784 H 149.135 127.691 84.1193 H 0 **** 0.053
26785 H 148.943 127.935 86.8121 H 0 **** 0.053
26786 H 150.494 128.103 85.9789 H 0 **** 0.053
26787 H 150.364 126.514 88.0956 H 0 **** 0.053
26788 H 151.23 125.899 86.684 H 0 **** 0.053
26789 H 152.913 125.715 106.08 H 0 **** 0.053
26790 H 153.563 126.687 103.914 H 0 **** 0.053
26791 H 151.875 127.115 103.545 H 0 **** 0.053
26792 H 152.368 125.408 103.61 H 0 **** 0.053
26793 H 152.187 127.778 107.262 H 0 **** 0.053
26794 H 151.663 128.496 105.72 H 0 **** 0.053
26795 H 153.387 128.153 106.003 H 0 **** 0.053
26796 H 146.349 125.385 95.351 H 0 **** 0.41
26797 H 152.692 118.77 85.0788 H 0 **** 0.053
26798 H 152.821 117.975 82.6 H 0 **** 0.053
26799 H 152.337 118.38 80.133 H 0 **** 0.053
26800 H 151.919 118.762 77.6329 H 0 **** 0.053
26801 H 150.826 120.257 75.7371 H 0 **** 0.053
26802 H 148.548 124.645 75.5991 H 0 **** 0.053
26803 H 149.533 122.387 75.0698 H 0 **** 0.053
26804 H 148.375 126.946 82.3168 H 0 **** 0.053
26805 H 146.856 127.251 81.0446 H 0 **** 0.053
26806 H 148.025 128.336 80.2679 H 0 **** 0.053
26807 H 145.768 128.725 79.3018 H 0 **** 0.053
26808 H 145.582 126.999 78.9769 H 0 **** 0.053
26809 H 147.736 128.827 77.7232 H 0 **** 0.053
26810 H 146.331 128.185 76.8406 H 0 **** 0.053
26811 C 145.974 107.536 14.4817 C.3 0 **** 0.054
26812 C 146.269 107.773 12.9725 C.3 0 **** -0.106
26813 C 147.668 108.419 12.7707 C.3 0 **** -0.053
26814 C 147.885 109.472 13.8834 C.3 0 **** -0.053
26815 C 147.763 108.802 15.285 C.3 0 **** 0.054
26816 O 147.176 107.51 15.2339 O.3 0 **** -0.32
26817 C 146.888 110.658 13.7285 C.3 0 **** -0.053
26818 C 146.611 111.025 12.2206 C.3 0 **** 0.107
26819 C 147.751 110.537 11.3353 C.3 0 **** -0.106
26820 C 147.877 109.004 11.3519 C.3 0 **** -0.106
26821 O 146.457 112.427 11.9748 O.3 0 **** -0.32
26822 C 145.668 113.029 12.9886 C.3 0 **** 0.107
26823 C 146.565 113.172 14.2467 C.3 0 **** -0.053
26824 C 147.391 111.887 14.5114 C.3 0 **** -0.106
26825 C 145.851 113.616 15.4973 C.2 0 **** 0
26826 C 144.419 113.124 15.6534 C.3 0 **** 0
26827 C 143.615 112.998 14.36 C.3 0 **** 0
26828 C 144.32 112.337 13.1822 C.3 0 **** -0.053
26829 C 142.199 112.49 14.5485 C.3 0 **** 0
26830 C 141.452 113.338 15.5721 C.3 0 **** 0
26831 C 142.284 113.358 16.9093 C.3 0 **** 0.16
26832 C 143.681 113.906 16.7211 C.3 0 **** 0
26833 C 144.459 114.092 18.0525 C.3 0 **** -0.106
26834 C 145.652 114.953 17.6672 C.3 0 **** -0.106
26835 C 146.385 114.436 16.4341 C.2 0 **** -0.1268
26836 O 141.664 113.813 18.1325 O.3 0 **** -0.32
26837 C 140.34 114.26 17.9315 C.3 0 **** 0.16
26838 C 139.407 113.32 17.0987 C.3 0 **** 0
26839 C 140.028 112.764 15.7922 C.3 0 **** 0
26840 C 143.419 112.388 11.9758 C.2 0 **** 0
26841 C 142.197 111.532 12.1532 C.3 0 **** -0.053
26842 C 141.4 112.298 13.2477 C.3 0 **** 0
26843 C 141.28 111.365 10.9616 C.2 0 **** 0
26844 C 141.403 112.246 9.9343 C.2 0 **** 0
26845 C 142.518 113.278 9.83548 C.3 0 **** -0.106
26846 C 143.572 113.187 10.9262 C.2 0 **** -0.1268
26847 C 140.543 112.121 8.69844 C.3 0 **** -0.106
26848 C 139.162 111.618 9.09562 C.3 0 **** -0.106
26849 C 139.315 110.425 10.0224 C.2 0 **** 0
26850 C 140.368 110.343 10.8989 C.2 0 **** 0
26851 C 140.454 109.163 11.8497 C.3 0 **** -0.106
26852 C 139.581 107.984 11.4457 C.3 0 **** -0.053
26853 C 138.152 108.479 11.1647 C.3 0 **** -0.106
26854 C 138.167 109.439 9.96985 C.3 0 **** -0.106
26855 C 139.251 112.771 14.4697 C.3 0 **** 0.147
26856 C 139.94 111.83 13.4923 C.3 0 **** -0.053
26857 C 137.959 113.804 16.9653 C.3 0 **** 0
26858 C 137.02 112.927 16.1263 C.3 0 **** 0.147
26859 S 137.495 112.309 14.5293 S.3 0 **** -0.294
26860 C 135.581 113.363 16.1202 C.3 0 **** -0.053
26861 C 135.097 113.492 17.5707 C.3 0 **** 0
26862 C 135.996 114.482 18.4057 C.3 0 **** 0
26863 C 137.453 113.976 18.4248 C.3 0 **** 0
26864 C 135.449 114.562 19.8237 C.3 0 **** 0
26865 C 134.018 115.06 19.7862 C.3 0 **** 0
26866 C 133.056 114.146 18.9187 C.3 0 **** 0
26867 C 133.635 114.029 17.4615 C.3 0 **** -0.053
26868 C 131.67 114.849 18.8716 C.3 0 **** 0
26869 C 131.094 114.779 20.2688 C.3 0 **** 0.16
26870 C 132.004 115.414 21.3243 C.3 0 **** 0
26871 C 133.492 115.477 21.1314 C.3 0 **** 0
26872 C 138.404 114.804 19.3301 C.3 0 **** 0
26873 C 139.836 114.279 19.3515 C.3 0 **** -0.053
26874 C 136.372 115.155 20.9115 C.3 0 **** 0
26875 C 137.832 115.493 20.5987 C.3 0 **** 0
26876 C 134.395 115.584 22.3597 C.3 0 **** 0
26877 C 135.781 116.116 21.9468 C.3 0 **** 0
26878 C 131.41 116.058 22.578 C.3 0 **** 0
26879 C 132.434 116.103 23.7566 C.3 0 **** 0
26880 C 133.832 116.618 23.3682 C.3 0 **** 0
26881 O 129.768 115.26 20.2261 O.3 0 **** -0.32
26882 C 129.03 114.091 19.8738 C.3 0 **** 0.107
26883 C 129.612 113.454 18.5702 C.3 0 **** -0.053
26884 C 130.556 114.436 17.8794 C.3 0 **** 0.107
26885 C 128.479 113.027 17.6246 C.3 0 **** -0.106
26886 C 127.321 112.414 18.433 C.3 0 **** -0.106
26887 C 126.61 113.499 19.2626 C.3 0 **** 0.134
26888 C 127.602 114.583 19.7633 C.3 0 **** -0.053
26889 C 127.155 115.211 21.1065 C.3 0 **** -0.106
26890 C 125.635 115.307 21.1512 C.3 0 **** -0.106
26891 C 124.989 113.895 21.012 C.3 0 **** 0.081
26892 N 125.839 112.913 20.3405 N.3 0 **** -0.727
26893 C 138.709 115.597 21.8751 C.3 0 **** 0.16
26894 C 138.097 116.629 22.8093 C.3 0 **** 0.16
26895 C 136.739 116.141 23.2222 C.3 0 **** 0
26896 O 138.871 116.923 23.953 O.3 0 **** -0.32
26897 C 140.214 117.194 23.5682 C.3 0 **** 0.107
26898 C 140.77 116.001 22.8542 C.3 0 **** 0.107
26899 O 140.075 115.887 21.6236 O.3 0 **** -0.32
26900 C 140.658 114.705 23.6985 C.3 0 **** -0.106
26901 C 140.679 115.005 25.2249 C.3 0 **** -0.106
26902 C 141.539 116.253 25.5077 C.3 0 **** -0.106
26903 C 140.955 117.529 24.8383 C.3 0 **** -0.106
26904 C 134.756 116.698 24.6639 C.3 0 **** 0
26905 C 136.175 117.191 24.2339 C.3 0 **** -0.053
26906 C 131.889 117.053 24.8366 C.3 0 **** 0
26907 C 132.848 117.19 26.0369 C.3 0 **** 0.16
26908 C 134.208 117.662 25.6998 C.3 0 **** -0.053
26909 C 130.5 116.447 25.2791 C.3 0 **** 0
26910 C 129.512 116.368 24.0445 C.3 0 **** 0
26911 C 130.115 115.35 23.0637 C.3 0 **** -0.053
26912 O 132.382 117.953 27.1012 O.3 0 **** -0.32
26913 C 131.044 117.57 27.3997 C.3 0 **** 0.16
26914 C 129.99 117.539 26.2142 C.3 0 **** 0
26915 C 128.049 115.971 24.3905 C.3 0 **** -0.053
26916 C 127.556 116.826 25.5553 C.3 0 **** -0.053
26917 C 128.62 117.047 26.6958 C.3 0 **** 0
26918 C 126.447 116.137 26.2726 C.3 0 **** -0.053
26919 C 125.526 115.449 25.2998 C.3 0 **** -0.106
26920 C 126.287 114.247 24.67 C.3 0 **** -0.106
26921 C 127.813 114.471 24.6728 C.3 0 **** -0.106
26922 C 128.101 118.071 27.6779 C.3 0 **** 0
26923 C 129.103 118.389 28.8274 C.3 0 **** 0
26924 C 130.582 118.517 28.4726 C.3 0 **** 0
26925 C 125.787 117.283 27.0355 C.3 0 **** 0
26926 C 126.717 117.726 28.1803 C.3 0 **** 0
26927 C 139.659 106.829 12.4768 C.3 0 **** -0.053
26928 C 138.901 107.129 13.7784 C.3 0 **** -0.159
26929 C 139.166 105.508 11.8727 C.3 0 **** -0.159
26930 O 131.008 113.914 16.6372 O.3 0 **** -0.57
26931 C 131.592 119.272 29.3825 C.3 0 **** -0.053
26932 C 131.095 119.603 30.793 C.3 0 **** -0.053
26933 C 129.638 120.098 30.7409 C.3 0 **** 0
26934 C 128.647 119.077 30.1001 C.3 0 **** 0
26935 C 127.149 119.322 30.1338 C.3 0 **** 0
26936 C 126.635 120.235 31.2077 C.3 0 **** 0
26937 C 127.664 120.791 32.2234 C.3 0 **** 0
26938 C 129.168 120.433 32.1603 C.3 0 **** -0.053
26939 C 127.154 121.537 33.4488 C.3 0 **** -0.053
26940 C 125.636 121.523 33.7325 C.3 0 **** -0.053
26941 C 124.677 121.165 32.5554 C.3 0 **** 0
26942 C 125.178 119.992 31.6726 C.3 0 **** 0
26943 C 124.232 119.738 30.4342 C.3 0 **** 0
26944 C 124.777 118.541 29.5666 C.3 0 **** 0
26945 C 126.187 118.866 29.0309 C.3 0 **** 0
26946 C 122.791 119.433 30.9527 C.3 0 **** 0
26947 C 122.302 120.652 31.8203 C.3 0 **** -0.053
26948 C 123.231 120.914 33.0214 C.3 0 **** -0.053
26949 C 124.375 116.97 27.5721 C.3 0 **** -0.053
26950 C 123.864 118.295 28.2989 C.3 0 **** 0
26951 C 121.814 119.206 29.7114 C.3 0 **** 0.02
26952 C 122.361 118.102 28.7395 C.3 0 **** 0
26953 C 121.486 117.674 27.5372 C.3 0 **** -0.106
26954 C 120.187 118.428 27.5678 C.3 0 **** -0.106
26955 C 119.559 118.336 28.953 C.3 0 **** -0.086
26956 C 120.377 118.849 30.0805 C.2 0 **** 0.379
26957 O 119.866 119.026 31.1735 O.2 0 **** -0.419
26958 H 145.482 106.566 14.6382 H 0 **** 0.053
26959 H 145.282 108.301 14.8679 H 0 **** 0.053
26960 H 146.225 106.83 12.3937 H 0 **** 0.053
26961 H 145.484 108.416 12.5316 H 0 **** 0.053
26962 H 148.408 107.618 12.9345 H 0 **** 0.053
26963 H 148.899 109.895 13.7585 H 0 **** 0.053
26964 H 147.208 109.448 15.9878 H 0 **** 0.053
26965 H 148.757 108.657 15.7204 H 0 **** 0.053
26966 H 145.947 110.33 14.2044 H 0 **** 0.053
26967 H 145.697 110.503 11.8803 H 0 **** 0.053
26968 H 148.683 111.011 11.6982 H 0 **** 0.053
26969 H 147.591 110.913 10.3127 H 0 **** 0.053
26970 H 148.864 108.717 10.9641 H 0 **** 0.053
26971 H 147.136 108.576 10.662 H 0 **** 0.053
26972 H 145.473 114.05 12.6543 H 0 **** 0.053
26973 H 147.285 113.967 14.0244 H 0 **** 0.053
26974 H 147.478 111.637 15.5916 H 0 **** 0.053
26975 H 148.421 112.084 14.1637 H 0 **** 0.053
26976 H 144.441 111.271 13.429 H 0 **** 0.053
26977 H 143.818 114.604 18.7975 H 0 **** 0.053
26978 H 144.75 113.114 18.4898 H 0 **** 0.053
26979 H 146.341 115.062 18.5089 H 0 **** 0.053
26980 H 145.271 115.961 17.4208 H 0 **** 0.053
26981 H 147.414 114.772 16.3551 H 0 **** 0.1268
26982 H 142.506 110.537 12.5564 H 0 **** 0.053
26983 H 142.081 114.321 9.82439 H 0 **** 0.053
26984 H 143.04 113.152 8.84467 H 0 **** 0.053
26985 H 144.438 113.833 10.8131 H 0 **** 0.1268
26986 H 140.481 113.083 8.14468 H 0 **** 0.053
26987 H 141.032 111.394 8.02634 H 0 **** 0.053
26988 H 138.557 111.363 8.20314 H 0 **** 0.053
26989 H 138.613 112.414 9.63395 H 0 **** 0.053
26990 H 141.498 108.819 11.886 H 0 **** 0.053
26991 H 140.198 109.472 12.8818 H 0 **** 0.053
26992 H 139.99 107.59 10.4927 H 0 **** 0.053
26993 H 137.766 109.004 12.0538 H 0 **** 0.053
26994 H 137.463 107.646 10.9637 H 0 **** 0.053
26995 H 137.192 109.977 9.90358 H 0 **** 0.053
26996 H 138.261 108.848 9.03147 H 0 **** 0.053
26997 H 139.321 111.776 12.5315 H 0 **** 0.053
26998 H 134.878 112.729 15.5011 H 0 **** 0.053
26999 H 133.058 113.224 16.9037 H 0 **** 0.053
27000 H 140.555 114.903 19.9572 H 0 **** 0.053
27001 H 129.1 113.372 20.7073 H 0 **** 0.053
27002 H 130.169 112.531 18.8296 H 0 **** 0.053
27003 H 130.014 115.354 17.6993 H 0 **** 0.053
27004 H 128.109 113.914 17.0661 H 0 **** 0.053
27005 H 128.87 112.319 16.8585 H 0 **** 0.053
27006 H 127.754 111.648 19.0981 H 0 **** 0.053
27007 H 126.598 111.897 17.7829 H 0 **** 0.053
27008 H 125.898 114.003 18.5894 H 0 **** 0.053
27009 H 127.639 115.392 19.0057 H 0 **** 0.053
27010 H 127.469 114.539 21.9186 H 0 **** 0.053
27011 H 127.648 116.186 21.2668 H 0 **** 0.053
27012 H 125.319 115.962 20.3192 H 0 **** 0.053
27013 H 125.291 115.805 22.0738 H 0 **** 0.053
27014 H 124.045 113.978 20.4492 H 0 **** 0.053
27015 H 124.708 113.505 22.0063 H 0 **** 0.053
27016 H 126.466 112.493 20.9969 H 0 **** 0.353
27017 H 140.194 118.034 22.8743 H 0 **** 0.053
27018 H 141.819 116.169 22.6272 H 0 **** 0.053
27019 H 139.729 114.14 23.4714 H 0 **** 0.053
27020 H 141.476 113.996 23.4504 H 0 **** 0.053
27021 H 141.049 114.128 25.7938 H 0 **** 0.053
27022 H 139.646 115.184 25.5847 H 0 **** 0.053
27023 H 142.544 116.066 25.0917 H 0 **** 0.053
27024 H 141.663 116.41 26.5946 H 0 **** 0.053
27025 H 141.75 118.282 24.6875 H 0 **** 0.053
27026 H 140.211 117.991 25.5277 H 0 **** 0.053
27027 H 136.833 117.249 25.168 H 0 **** 0.053
27028 H 134.902 117.759 26.5608 H 0 **** 0.053
27029 H 129.374 115.223 22.2244 H 0 **** 0.053
27030 H 127.491 116.227 23.5007 H 0 **** 0.053
27031 H 127.246 117.81 25.1517 H 0 **** 0.053
27032 H 126.821 115.381 26.9955 H 0 **** 0.053
27033 H 125.232 116.177 24.5193 H 0 **** 0.053
27034 H 124.583 115.074 25.7553 H 0 **** 0.053
27035 H 125.946 114.095 23.6264 H 0 **** 0.053
27036 H 126.032 113.318 25.2136 H 0 **** 0.053
27037 H 128.295 113.813 23.9269 H 0 **** 0.053
27038 H 128.247 114.212 25.6473 H 0 **** 0.053
27039 H 140.726 106.69 12.733 H 0 **** 0.053
27040 H 139.077 106.339 14.5258 H 0 **** 0.053
27041 H 137.815 107.182 13.5962 H 0 **** 0.053
27042 H 139.209 108.086 14.2308 H 0 **** 0.053
27043 H 139.738 105.246 10.9683 H 0 **** 0.053
27044 H 138.103 105.576 11.5911 H 0 **** 0.053
27045 H 139.274 104.679 12.5891 H 0 **** 0.053
27046 H 131.586 114.581 16.2734 H 0 **** 0.41
27047 H 132.676 118.989 29.2653 H 0 **** 0.053
27048 H 131.78 120.329 31.3122 H 0 **** 0.053
27049 H 129.819 121.176 32.6974 H 0 **** 0.053
27050 H 127.882 122.011 34.1548 H 0 **** 0.053
27051 H 125.265 122.249 34.4983 H 0 **** 0.053
27052 H 121.246 120.529 32.183 H 0 **** 0.053
27053 H 122.872 121.733 33.6871 H 0 **** 0.053
27054 H 123.659 116.687 26.7179 H 0 **** 0.053
27055 H 122.013 117.825 26.5783 H 0 **** 0.053
27056 H 121.354 116.603 27.6817 H 0 **** 0.053
27057 H 119.506 118.027 26.8213 H 0 **** 0.053
27058 H 120.376 119.486 27.2956 H 0 **** 0.053
27059 H 119.377 117.296 29.2347 H 0 **** 0.053
27060 H 118.645 118.91 29.0869 H 0 **** 0.053
27061 C 173.245 97.1791 52.7957 C.3 0 **** 0.054
27062 C 173.042 96.726 54.2705 C.3 0 **** -0.106
27063 C 172.746 95.2028 54.3523 C.3 0 **** -0.053
27064 C 171.807 94.8239 53.1811 C.3 0 **** -0.053
27065 C 172.468 95.2047 51.8221 C.3 0 **** 0.054
27066 O 173.58 96.0767 51.969 O.3 0 **** -0.32
27067 C 170.413 95.4976 53.346 C.3 0 **** -0.053
27068 C 169.947 95.5681 54.8504 C.3 0 **** 0.107
27069 C 170.669 94.5145 55.6818 C.3 0 **** -0.106
27070 C 172.187 94.7576 55.7269 C.3 0 **** -0.106
27071 O 168.543 95.3657 55.0413 O.3 0 **** -0.32
27072 C 167.798 96.0624 54.0545 C.3 0 **** 0.107
27073 C 167.911 95.2516 52.7359 C.3 0 **** -0.053
27074 C 169.363 94.7756 52.4772 C.3 0 **** -0.106
27075 C 167.344 95.9298 51.515 C.2 0 **** 0
27076 C 167.482 97.4451 51.4741 C.3 0 **** 0
27077 C 167.375 98.1586 52.8212 C.3 0 **** 0
27078 C 168.152 97.546 53.9798 C.3 0 **** -0.053
27079 C 167.534 99.6642 52.7474 C.3 0 **** 0
27080 C 166.561 100.262 51.737 C.3 0 **** 0
27081 C 166.779 99.5503 50.3494 C.3 0 **** 0.16
27082 C 166.577 98.0528 50.422 C.3 0 **** 0
27083 C 166.621 97.3528 49.0361 C.3 0 **** -0.106
27084 C 166.061 95.9643 49.304 C.3 0 **** -0.106
27085 C 166.704 95.287 50.5095 C.2 0 **** -0.1268
27086 O 166.224 100.132 49.1492 O.3 0 **** -0.32
27087 C 165.466 101.293 49.4148 C.3 0 **** 0.16
27088 C 166.131 102.36 50.3478 C.3 0 **** 0
27089 C 166.782 101.794 51.6355 C.3 0 **** 0
27090 C 167.852 98.3179 55.2383 C.2 0 **** 0
27091 C 168.395 99.7181 55.1785 C.3 0 **** -0.053
27092 C 167.491 100.388 54.1042 C.3 0 **** 0
27093 C 168.3 100.559 56.4321 C.2 0 **** 0
27094 C 167.442 100.156 57.405 C.2 0 **** 0
27095 C 166.71 98.8227 57.3886 C.3 0 **** -0.106
27096 C 167.083 97.9024 56.2382 C.2 0 **** -0.1268
27097 C 167.318 100.928 58.6955 C.3 0 **** -0.106
27098 C 167.493 102.412 58.4184 C.3 0 **** -0.106
27099 C 168.716 102.615 57.54 C.2 0 **** 0
27100 C 169.073 101.679 56.6015 C.2 0 **** 0
27101 C 170.266 101.946 55.7021 C.3 0 **** -0.106
27102 C 171.189 103.042 56.2144 C.3 0 **** -0.053
27103 C 170.357 104.288 56.5644 C.3 0 **** -0.106
27104 C 169.396 103.957 57.7112 C.3 0 **** -0.106
27105 C 166.551 102.448 53.0038 C.3 0 **** 0.147
27106 C 167.601 101.932 53.9761 C.3 0 **** -0.053
27107 C 165.311 103.638 50.5522 C.3 0 **** 0
27108 C 165.912 104.693 51.489 C.3 0 **** 0.147
27109 S 166.581 104.263 53.0778 S.3 0 **** -0.294
27110 C 165.144 105.983 51.5682 C.3 0 **** -0.053
27111 C 164.944 106.528 50.1475 C.3 0 **** 0
27112 C 164.222 105.484 49.2123 C.3 0 **** 0
27113 C 165.063 104.194 49.1221 C.3 0 **** 0
27114 C 164.054 106.099 47.8303 C.3 0 **** 0
27115 C 163.226 107.363 47.9373 C.3 0 **** 0
27116 C 163.858 108.45 48.9057 C.3 0 **** 0
27117 C 164.069 107.809 50.3264 C.3 0 **** -0.053
27118 C 162.842 109.621 49.0102 C.3 0 **** 0
27119 C 162.812 110.299 47.6575 C.3 0 **** 0.16
27120 C 162.443 109.344 46.5181 C.3 0 **** 0
27121 C 162.734 107.874 46.6113 C.3 0 **** 0
27122 C 164.514 103.143 48.1209 C.3 0 **** 0
27123 C 165.368 101.882 48.031 C.3 0 **** -0.053
27124 C 163.731 105.144 46.6595 C.3 0 **** 0
27125 C 163.745 103.627 46.8618 C.3 0 **** 0
27126 C 162.882 107.063 45.3238 C.3 0 **** 0
27127 C 162.687 105.565 45.622 C.3 0 **** 0
27128 C 161.713 109.858 45.2771 C.3 0 **** 0
27129 C 161.948 108.943 44.0343 C.3 0 **** 0
27130 C 161.773 107.437 44.3077 C.3 0 **** 0
27131 O 162.025 111.465 47.7637 O.3 0 **** -0.32
27132 C 162.973 112.431 48.2156 C.3 0 **** 0.107
27133 C 163.693 111.924 49.5065 C.3 0 **** -0.053
27134 C 162.947 110.725 50.0898 C.3 0 **** 0.107
27135 C 163.809 113.052 50.5415 C.3 0 **** -0.106
27136 C 164.15 114.379 49.838 C.3 0 **** -0.106
27137 C 162.95 114.871 49.0073 C.3 0 **** 0.134
27138 C 162.15 113.689 48.3954 C.3 0 **** -0.053
27139 C 161.471 114.072 47.0566 C.3 0 **** -0.106
27140 C 161.015 115.524 47.1054 C.3 0 **** -0.106
27141 C 162.227 116.475 47.3492 C.3 0 **** 0.081
27142 N 163.364 115.836 48.0086 N.3 0 **** -0.727
27143 C 163.891 102.846 45.5281 C.3 0 **** 0.16
27144 C 162.769 103.262 44.5894 C.3 0 **** 0.16
27145 C 162.929 104.724 44.2877 C.3 0 **** 0
27146 O 162.702 102.527 43.3859 O.3 0 **** -0.32
27147 C 162.75 101.134 43.6707 C.3 0 **** 0.107
27148 C 164.022 100.826 44.4007 C.3 0 **** 0.107
27149 O 163.93 101.436 45.6775 O.3 0 **** -0.32
27150 C 165.276 101.304 43.6251 C.3 0 **** -0.106
27151 C 165.034 101.324 42.0884 C.3 0 **** -0.106
27152 C 164.037 100.216 41.6944 C.3 0 **** -0.106
27153 C 162.64 100.43 42.3416 C.3 0 **** -0.106
27154 C 161.955 106.618 42.9529 C.3 0 **** 0
27155 C 161.804 105.096 43.2678 C.3 0 **** -0.053
27156 C 160.927 109.324 42.9502 C.3 0 **** 0
27157 C 161.058 108.451 41.6853 C.3 0 **** 0.16
27158 C 160.916 106.996 41.9125 C.3 0 **** -0.053
27159 C 161.194 110.847 42.6258 C.3 0 **** 0
27160 C 160.999 111.732 43.9236 C.3 0 **** 0
27161 C 162.102 111.317 44.9087 C.3 0 **** -0.053
27162 O 160.238 108.799 40.6181 O.3 0 **** -0.32
27163 C 160.296 110.208 40.4255 C.3 0 **** 0.16
27164 C 160.038 111.149 41.6772 C.3 0 **** 0
27165 C 161.043 113.268 43.691 C.3 0 **** -0.053
27166 C 160.128 113.628 42.5228 C.3 0 **** -0.053
27167 C 160.201 112.629 41.3074 C.3 0 **** 0
27168 C 160.551 114.919 41.9105 C.3 0 **** -0.053
27169 C 160.97 115.903 42.9709 C.3 0 **** -0.106
27170 C 162.3 115.404 43.6041 C.3 0 **** -0.106
27171 C 162.449 113.873 43.4928 C.3 0 **** -0.106
27172 C 159.111 112.961 40.3152 C.3 0 **** 0
27173 C 159.075 111.999 39.0905 C.3 0 **** 0
27174 C 159.298 110.51 39.3413 C.3 0 **** 0
27175 C 159.303 115.342 41.1404 C.3 0 **** 0
27176 C 159.129 114.42 39.9193 C.3 0 **** 0
27177 C 172.358 103.317 55.2337 C.3 0 **** -0.053
27178 C 171.922 104.075 53.9713 C.3 0 **** -0.159
27179 C 173.504 104.063 55.9275 C.3 0 **** -0.159
27180 O 163.526 110.321 51.3228 O.3 0 **** -0.57
27181 C 158.831 109.42 38.3366 C.3 0 **** -0.053
27182 C 158.431 109.926 36.9478 C.3 0 **** -0.053
27183 C 157.602 111.217 37.0697 C.3 0 **** 0
27184 C 158.336 112.371 37.8191 C.3 0 **** 0
27185 C 157.738 113.766 37.8723 C.3 0 **** 0
27186 C 156.763 114.127 36.7916 C.3 0 **** 0
27187 C 156.494 113.071 35.6906 C.3 0 **** 0
27188 C 157.204 111.696 35.6705 C.3 0 **** -0.053
27189 C 155.69 113.48 34.4645 C.3 0 **** -0.053
27190 C 155.343 114.974 34.2824 C.3 0 **** -0.053
27191 C 155.427 115.902 35.5333 C.3 0 **** 0
27192 C 156.661 115.63 36.4339 C.3 0 **** 0
27193 C 156.645 116.515 37.7409 C.3 0 **** 0
27194 C 157.912 116.208 38.6249 C.3 0 **** 0
27195 C 157.92 114.726 39.0536 C.3 0 **** 0
27196 C 156.61 118.022 37.3306 C.3 0 **** 0
27197 C 155.335 118.27 36.4422 C.3 0 **** -0.053
27198 C 155.337 117.396 35.1731 C.3 0 **** -0.053
27199 C 159.284 116.823 40.7105 C.3 0 **** -0.053
27200 C 157.896 117.058 39.9583 C.3 0 **** 0
27201 C 156.561 118.931 38.6414 C.3 0 **** 0.02
27202 C 157.736 118.591 39.6246 C.3 0 **** 0
27203 C 157.907 119.452 40.8991 C.3 0 **** -0.106
27204 C 156.865 120.534 40.9198 C.3 0 **** -0.106
27205 C 156.842 121.266 39.5828 C.3 0 **** -0.086
27206 C 156.573 120.435 38.3826 C.2 0 **** 0.379
27207 O 156.309 120.968 37.3179 O.2 0 **** -0.419
27208 H 174.072 97.897 52.7155 H 0 **** 0.053
27209 H 172.348 97.696 52.4208 H 0 **** 0.053
27210 H 173.93 96.95 54.8932 H 0 **** 0.053
27211 H 172.218 97.301 54.7315 H 0 **** 0.053
27212 H 173.704 94.688 54.1776 H 0 **** 0.053
27213 H 171.637 93.7322 53.221 H 0 **** 0.053
27214 H 171.728 95.6406 51.1281 H 0 **** 0.053
27215 H 172.86 94.3076 51.3305 H 0 **** 0.053
27216 H 170.519 96.5213 52.9471 H 0 **** 0.053
27217 H 170.224 96.5518 55.2724 H 0 **** 0.053
27218 H 170.443 93.5262 55.2385 H 0 **** 0.053
27219 H 170.236 94.5054 56.6946 H 0 **** 0.053
27220 H 172.691 93.841 56.0628 H 0 **** 0.053
27221 H 172.404 95.5262 56.482 H 0 **** 0.053
27222 H 166.751 95.984 54.3543 H 0 **** 0.053
27223 H 167.305 94.3491 52.8751 H 0 **** 0.053
27224 H 169.658 94.8308 51.4062 H 0 **** 0.053
27225 H 169.409 93.7062 52.7486 H 0 **** 0.053
27226 H 169.222 97.7 53.7745 H 0 **** 0.053
27227 H 165.992 97.9067 48.3116 H 0 **** 0.053
27228 H 167.653 97.3349 48.6259 H 0 **** 0.053
27229 H 166.144 95.3334 48.4157 H 0 **** 0.053
27230 H 164.984 96.0761 49.5288 H 0 **** 0.053
27231 H 166.623 94.2045 50.5069 H 0 **** 0.1268
27232 H 169.446 99.6841 54.8022 H 0 **** 0.053
27233 H 165.592 98.9951 57.3818 H 0 **** 0.053
27234 H 166.931 98.2762 58.3493 H 0 **** 0.053
27235 H 166.661 96.9021 56.2665 H 0 **** 0.1268
27236 H 166.358 100.717 59.2117 H 0 **** 0.053
27237 H 168.123 100.567 59.3558 H 0 **** 0.053
27238 H 167.572 102.99 59.3608 H 0 **** 0.053
27239 H 166.606 102.799 57.8818 H 0 **** 0.053
27240 H 170.851 101.019 55.6142 H 0 **** 0.053
27241 H 169.934 102.197 54.6757 H 0 **** 0.053
27242 H 171.642 102.669 57.1559 H 0 **** 0.053
27243 H 169.781 104.602 55.6794 H 0 **** 0.053
27244 H 170.994 105.138 56.8469 H 0 **** 0.053
27245 H 168.638 104.769 57.8156 H 0 **** 0.053
27246 H 169.965 103.937 58.6676 H 0 **** 0.053
27247 H 167.478 102.473 54.9765 H 0 **** 0.053
27248 H 165.573 106.769 52.2594 H 0 **** 0.053
27249 H 164.695 108.518 50.9561 H 0 **** 0.053
27250 H 164.952 101.081 47.3525 H 0 **** 0.053
27251 H 163.712 112.596 47.413 H 0 **** 0.053
27252 H 164.73 111.622 49.254 H 0 **** 0.053
27253 H 161.921 111.02 50.2626 H 0 **** 0.053
27254 H 162.843 113.16 51.082 H 0 **** 0.053
27255 H 164.568 112.786 51.3122 H 0 **** 0.053
27256 H 165.016 114.19 49.1819 H 0 **** 0.053
27257 H 164.458 115.155 50.5562 H 0 **** 0.053
27258 H 162.27 115.391 49.7016 H 0 **** 0.053
27259 H 161.352 113.406 49.1119 H 0 **** 0.053
27260 H 162.222 113.987 46.2574 H 0 **** 0.053
27261 H 160.648 113.374 46.821 H 0 **** 0.053
27262 H 160.28 115.614 47.9259 H 0 **** 0.053
27263 H 160.475 115.807 46.1854 H 0 **** 0.053
27264 H 161.904 117.327 47.9681 H 0 **** 0.053
27265 H 162.566 116.912 46.3942 H 0 **** 0.053
27266 H 163.942 115.375 47.334 H 0 **** 0.353
27267 H 161.911 100.903 44.3256 H 0 **** 0.053
27268 H 164.104 99.7529 44.5518 H 0 **** 0.053
27269 H 165.595 102.321 43.9371 H 0 **** 0.053
27270 H 166.153 100.661 43.8519 H 0 **** 0.053
27271 H 165.99 101.216 41.5373 H 0 **** 0.053
27272 H 164.623 102.309 41.7884 H 0 **** 0.053
27273 H 164.448 99.2563 42.053 H 0 **** 0.053
27274 H 163.945 100.139 40.5958 H 0 **** 0.053
27275 H 162.095 99.4699 42.4066 H 0 **** 0.053
27276 H 162.033 101.092 41.6814 H 0 **** 0.053
27277 H 161.932 104.513 42.2916 H 0 **** 0.053
27278 H 161.014 106.365 41.0041 H 0 **** 0.053
27279 H 162.025 112.003 45.7989 H 0 **** 0.053
27280 H 160.634 113.682 44.6025 H 0 **** 0.053
27281 H 159.087 113.665 42.9004 H 0 **** 0.053
27282 H 161.395 114.789 41.2001 H 0 **** 0.053
27283 H 160.171 115.957 43.7348 H 0 **** 0.053
27284 H 161.121 116.938 42.5943 H 0 **** 0.053
27285 H 162.337 115.694 44.6734 H 0 **** 0.053
27286 H 163.157 115.912 43.1208 H 0 **** 0.053
27287 H 163.182 113.508 44.2352 H 0 **** 0.053
27288 H 162.833 113.586 42.5052 H 0 **** 0.053
27289 H 172.756 102.334 54.9157 H 0 **** 0.053
27290 H 172.752 104.146 53.2508 H 0 **** 0.053
27291 H 171.605 105.101 54.2206 H 0 **** 0.053
27292 H 171.081 103.583 53.4572 H 0 **** 0.053
27293 H 173.87 103.505 56.8042 H 0 **** 0.053
27294 H 173.175 105.055 56.2737 H 0 **** 0.053
27295 H 174.355 104.208 55.2441 H 0 **** 0.053
27296 H 163.008 109.574 51.6177 H 0 **** 0.41
27297 H 159.363 108.428 38.3959 H 0 **** 0.053
27298 H 157.907 109.128 36.3528 H 0 **** 0.053
27299 H 156.655 110.929 35.0608 H 0 **** 0.053
27300 H 155.42 112.713 33.6947 H 0 **** 0.053
27301 H 154.572 115.217 33.5095 H 0 **** 0.053
27302 H 155.21 119.348 36.1546 H 0 **** 0.053
27303 H 154.475 117.598 34.4959 H 0 **** 0.053
27304 H 159.362 117.522 41.6206 H 0 **** 0.053
27305 H 157.86 118.834 41.8134 H 0 **** 0.053
27306 H 158.919 119.845 40.8121 H 0 **** 0.053
27307 H 157.072 121.235 41.7267 H 0 **** 0.053
27308 H 155.875 120.082 41.1306 H 0 **** 0.053
27309 H 157.816 121.711 39.3612 H 0 **** 0.053
27310 H 156.069 122.025 39.4824 H 0 **** 0.053
27311 C 153.684 194.792 70.9937 C.3 0 **** 0.054
27312 C 153.603 195.601 72.3203 C.3 0 **** -0.106
27313 C 154.94 196.338 72.6102 C.3 0 **** -0.053
27314 C 156.108 195.398 72.2261 C.3 0 **** -0.053
27315 C 155.995 194.99 70.7265 C.3 0 **** 0.054
27316 O 154.724 195.284 70.1644 O.3 0 **** -0.32
27317 C 156.146 194.15 73.1559 C.3 0 **** -0.053
27318 C 155.752 194.489 74.644 C.3 0 **** 0.107
27319 C 155.966 195.971 74.9272 C.3 0 **** -0.106
27320 C 155.053 196.859 74.0646 C.3 0 **** -0.106
27321 O 156.492 193.761 75.6296 O.3 0 **** -0.32
27322 C 156.635 192.402 75.2457 C.3 0 **** 0.107
27323 C 157.722 192.349 74.1392 C.3 0 **** -0.053
27324 C 157.532 193.477 73.0928 C.3 0 **** -0.106
27325 C 157.884 191.012 73.4624 C.2 0 **** 0
27326 C 156.611 190.194 73.2984 C.3 0 **** 0
27327 C 155.589 190.321 74.428 C.3 0 **** 0
27328 C 155.301 191.731 74.9291 C.3 0 **** -0.053
27329 C 154.326 189.507 74.2258 C.3 0 **** 0
27330 C 154.663 188.044 73.9598 C.3 0 **** 0
27331 C 155.646 187.971 72.7323 C.3 0 **** 0.16
27332 C 156.923 188.751 72.9588 C.3 0 **** 0
27333 C 157.977 188.556 71.8346 C.3 0 **** -0.106
27334 C 159.259 189.123 72.4256 C.3 0 **** -0.106
27335 C 159.067 190.502 73.0457 C.2 0 **** -0.1268
27336 O 155.873 186.708 72.0686 O.3 0 **** -0.32
27337 C 155.186 185.642 72.6901 C.3 0 **** 0.16
27338 C 153.676 185.886 73.02 C.3 0 **** 0
27339 C 153.36 187.243 73.6978 C.3 0 **** 0
27340 C 154.353 191.655 76.098 C.2 0 **** 0
27341 C 152.993 191.165 75.6858 C.3 0 **** -0.053
27342 C 153.263 189.676 75.3253 C.3 0 **** 0
27343 C 151.897 191.185 76.7274 C.2 0 **** 0
27344 C 152.259 191.303 78.0317 C.2 0 **** 0
27345 C 153.682 191.586 78.4915 C.3 0 **** -0.106
27346 C 154.676 191.846 77.372 C.2 0 **** -0.1268
27347 C 151.216 191.361 79.1238 C.3 0 **** -0.106
27348 C 150.042 190.469 78.7464 C.3 0 **** -0.106
27349 C 149.638 190.758 77.3113 C.2 0 **** 0
27350 C 150.574 191.116 76.3735 C.2 0 **** 0
27351 C 150.139 191.339 74.9372 C.3 0 **** -0.106
27352 C 148.64 191.544 74.7741 C.3 0 **** -0.053
27353 C 147.888 190.419 75.5044 C.3 0 **** -0.106
27354 C 148.177 190.499 77.0072 C.3 0 **** -0.106
27355 C 152.436 187.333 74.9189 C.3 0 **** 0.147
27356 C 152.012 188.782 75.106 C.3 0 **** -0.053
27357 C 152.946 184.682 73.6249 C.3 0 **** 0
27358 C 151.472 184.891 73.9948 C.3 0 **** 0.147
27359 S 150.929 186.319 74.9023 S.3 0 **** -0.294
27360 C 150.756 183.657 74.4686 C.3 0 **** -0.053
27361 C 150.928 182.552 73.4184 C.3 0 **** 0
27362 C 152.448 182.256 73.1199 C.3 0 **** 0
27363 C 153.136 183.533 72.5952 C.3 0 **** 0
27364 C 152.536 181.148 72.0801 C.3 0 **** 0
27365 C 151.857 179.902 72.6119 C.3 0 **** 0
27366 C 150.332 180.129 72.988 C.3 0 **** 0
27367 C 150.231 181.297 74.0351 C.3 0 **** -0.053
27368 C 149.815 178.811 73.6301 C.3 0 **** 0
27369 C 149.778 177.771 72.531 C.3 0 **** 0.16
27370 C 151.14 177.563 71.8619 C.3 0 **** 0
27371 C 152.156 178.666 71.8085 C.3 0 **** 0
27372 C 154.606 183.326 72.1419 C.3 0 **** 0
27373 C 155.264 184.595 71.6093 C.3 0 **** -0.053
27374 C 153.886 180.957 71.3538 C.3 0 **** 0
27375 C 155.032 181.951 71.5592 C.3 0 **** 0
27376 C 153.218 178.649 70.7088 C.3 0 **** 0
27377 C 154.409 179.538 71.114 C.3 0 **** 0
27378 C 151.514 176.206 71.2652 C.3 0 **** 0
27379 C 152.603 176.33 70.153 C.3 0 **** 0
27380 C 153.799 177.224 70.5262 C.3 0 **** 0
27381 O 149.159 176.61 73.0415 O.3 0 **** -0.32
27382 C 147.776 176.88 72.8189 C.3 0 **** 0.107
27383 C 147.38 178.251 73.4572 C.3 0 **** -0.053
27384 C 148.478 178.727 74.4061 C.3 0 **** 0.107
27385 C 146.035 178.139 74.1898 C.3 0 **** -0.106
27386 C 145.065 177.261 73.3774 C.3 0 **** -0.106
27387 C 145.525 175.792 73.395 C.3 0 **** 0.134
27388 C 147.073 175.674 73.407 C.3 0 **** -0.053
27389 C 147.569 174.383 72.7097 C.3 0 **** -0.106
27390 C 146.588 173.247 72.9695 C.3 0 **** -0.106
27391 C 145.172 173.606 72.4241 C.3 0 **** 0.081
27392 N 144.921 175.041 72.3124 N.3 0 **** -0.727
27393 C 156.084 181.896 70.4199 C.3 0 **** 0.16
27394 C 156.61 180.473 70.3054 C.3 0 **** 0.16
27395 C 155.466 179.581 69.9196 C.3 0 **** 0
27396 O 157.677 180.308 69.3954 O.3 0 **** -0.32
27397 C 158.676 181.291 69.643 C.3 0 **** 0.107
27398 C 158.07 182.653 69.4974 C.3 0 **** 0.107
27399 O 157.152 182.82 70.5643 O.3 0 **** -0.32
27400 C 157.39 182.851 68.1178 C.3 0 **** -0.106
27401 C 158.05 181.972 67.0163 C.3 0 **** -0.106
27402 C 159.55 181.78 67.3188 C.3 0 **** -0.106
27403 C 159.783 181.021 68.6557 C.3 0 **** -0.106
27404 C 154.875 177.205 69.3504 C.3 0 **** 0
27405 C 156.059 178.145 69.7435 C.3 0 **** -0.053
27406 C 153.163 174.928 69.8622 C.3 0 **** 0
27407 C 154.273 174.948 68.7907 C.3 0 **** 0.16
27408 C 155.429 175.813 69.1053 C.3 0 **** -0.053
27409 C 151.929 174.061 69.3937 C.3 0 **** 0
27410 C 150.828 174.006 70.5293 C.3 0 **** 0
27411 C 150.292 175.437 70.692 C.3 0 **** -0.053
27412 O 154.761 173.707 68.3988 O.3 0 **** -0.32
27413 C 153.667 172.828 68.1623 C.3 0 **** 0.16
27414 C 152.565 172.678 69.2946 C.3 0 **** 0
27415 C 149.651 173.025 70.2648 C.3 0 **** -0.053
27416 C 150.211 171.668 69.8455 C.3 0 **** -0.053
27417 C 151.431 171.746 68.852 C.3 0 **** 0
27418 C 149.198 170.909 69.0593 C.3 0 **** -0.053
27419 C 147.821 171.096 69.6393 C.3 0 **** -0.106
27420 C 147.378 172.565 69.3867 C.3 0 **** -0.106
27421 C 148.587 173.514 69.2592 C.3 0 **** -0.106
27422 C 152.029 170.37 68.6782 C.3 0 **** 0
27423 C 153.272 170.35 67.7395 C.3 0 **** 0
27424 C 154.28 171.489 67.8618 C.3 0 **** 0
27425 C 149.714 169.476 69.1553 C.3 0 **** 0
27426 C 150.987 169.341 68.2999 C.3 0 **** 0
27427 C 148.239 191.711 73.2854 C.3 0 **** -0.053
27428 C 148.291 190.395 72.4958 C.3 0 **** -0.159
27429 C 146.854 192.353 73.15 C.3 0 **** -0.159
27430 O 148.085 179.916 75.0782 O.3 0 **** -0.57
27431 C 155.745 171.359 67.3572 C.3 0 **** -0.053
27432 C 156.031 170.156 66.4518 C.3 0 **** -0.053
27433 C 155.326 168.901 66.9969 C.3 0 **** 0
27434 C 153.779 169.054 67.1341 C.3 0 **** 0
27435 C 152.907 167.86 67.4802 C.3 0 **** 0
27436 C 153.463 166.502 67.1705 C.3 0 **** 0
27437 C 154.842 166.44 66.4662 C.3 0 **** 0
27438 C 155.635 167.712 66.0822 C.3 0 **** -0.053
27439 C 155.336 165.099 65.9401 C.3 0 **** -0.053
27440 C 154.354 163.907 65.9435 C.3 0 **** -0.053
27441 C 153.106 163.992 66.8761 C.3 0 **** 0
27442 C 152.427 165.386 66.8897 C.3 0 **** 0
27443 C 151.239 165.455 67.9272 C.3 0 **** 0
27444 C 150.579 166.885 67.9086 C.3 0 **** 0
27445 C 151.615 167.959 68.2992 C.3 0 **** 0
27446 C 150.188 164.357 67.5663 C.3 0 **** 0
27447 C 150.902 162.954 67.5884 C.3 0 **** -0.053
27448 C 152.073 162.887 66.5889 C.3 0 **** -0.053
27449 C 148.684 168.394 68.7705 C.3 0 **** -0.053
27450 C 149.41 166.986 68.9692 C.3 0 **** 0
27451 C 148.995 164.391 68.6259 C.3 0 **** 0.02
27452 C 148.367 165.825 68.7426 C.3 0 **** 0
27453 C 147.125 166.018 69.6452 C.3 0 **** -0.106
27454 C 146.723 164.697 70.2381 C.3 0 **** -0.106
27455 C 146.633 163.637 69.1462 C.3 0 **** -0.086
27456 C 147.869 163.395 68.3604 C.2 0 **** 0.379
27457 O 147.952 162.418 67.6363 O.2 0 **** -0.419
27458 H 152.752 194.884 70.4196 H 0 **** 0.053
27459 H 153.818 193.719 71.2001 H 0 **** 0.053
27460 H 152.784 196.347 72.2953 H 0 **** 0.053
27461 H 153.349 194.926 73.1585 H 0 **** 0.053
27462 H 154.978 197.199 71.9231 H 0 **** 0.053
27463 H 157.054 195.946 72.3942 H 0 **** 0.053
27464 H 156.239 193.923 70.585 H 0 **** 0.053
27465 H 156.72 195.553 70.1279 H 0 **** 0.053
27466 H 155.417 193.435 72.7376 H 0 **** 0.053
27467 H 154.675 194.288 74.7907 H 0 **** 0.053
27468 H 157.031 196.198 74.7337 H 0 **** 0.053
27469 H 155.801 196.153 76.001 H 0 **** 0.053
27470 H 155.438 197.888 74.0706 H 0 **** 0.053
27471 H 154.055 196.898 74.5226 H 0 **** 0.053
27472 H 157.071 191.889 76.1053 H 0 **** 0.053
27473 H 158.679 192.541 74.6369 H 0 **** 0.053
27474 H 157.745 193.149 72.0518 H 0 **** 0.053
27475 H 158.276 194.261 73.3208 H 0 **** 0.053
27476 H 154.758 192.258 74.1296 H 0 **** 0.053
27477 H 158.085 187.478 71.5996 H 0 **** 0.053
27478 H 157.667 189.064 70.898 H 0 **** 0.053
27479 H 160.056 189.141 71.6787 H 0 **** 0.053
27480 H 159.582 188.443 73.2358 H 0 **** 0.053
27481 H 159.98 191.084 73.1264 H 0 **** 0.1268
27482 H 152.675 191.711 74.7654 H 0 **** 0.053
27483 H 154.059 190.737 79.1353 H 0 **** 0.053
27484 H 153.672 192.495 79.1575 H 0 **** 0.053
27485 H 155.668 192.167 77.6751 H 0 **** 0.1268
27486 H 151.641 191.078 80.111 H 0 **** 0.053
27487 H 150.883 192.411 79.2069 H 0 **** 0.053
27488 H 149.192 190.611 79.443 H 0 **** 0.053
27489 H 150.34 189.406 78.8214 H 0 **** 0.053
27490 H 150.65 192.234 74.5526 H 0 **** 0.053
27491 H 150.466 190.5 74.2934 H 0 **** 0.053
27492 H 148.387 192.498 75.2821 H 0 **** 0.053
27493 H 148.224 189.444 75.1162 H 0 **** 0.053
27494 H 146.804 190.473 75.3312 H 0 **** 0.053
27495 H 147.833 189.566 77.5099 H 0 **** 0.053
27496 H 147.58 191.329 77.4472 H 0 **** 0.053
27497 H 151.265 188.841 75.97 H 0 **** 0.053
27498 H 149.669 183.798 74.7495 H 0 **** 0.053
27499 H 149.138 181.586 74.1533 H 0 **** 0.053
27500 H 156.352 184.478 71.3306 H 0 **** 0.053
27501 H 147.597 176.907 71.7307 H 0 **** 0.053
27502 H 147.237 179.002 72.6531 H 0 **** 0.053
27503 H 148.65 177.95 75.138 H 0 **** 0.053
27504 H 146.195 177.681 75.1903 H 0 **** 0.053
27505 H 145.617 179.155 74.3759 H 0 **** 0.053
27506 H 145.063 177.642 72.3431 H 0 **** 0.053
27507 H 144.032 177.341 73.749 H 0 **** 0.053
27508 H 145.164 175.352 74.3385 H 0 **** 0.053
27509 H 147.408 175.639 74.4643 H 0 **** 0.053
27510 H 147.585 174.566 71.6252 H 0 **** 0.053
27511 H 148.598 174.137 73.0251 H 0 **** 0.053
27512 H 146.553 173.082 74.0617 H 0 **** 0.053
27513 H 146.946 172.299 72.5331 H 0 **** 0.053
27514 H 144.405 173.173 73.0866 H 0 **** 0.053
27515 H 145.013 173.137 71.438 H 0 **** 0.053
27516 H 145.272 175.392 71.443 H 0 **** 0.353
27517 H 159.009 181.169 70.6733 H 0 **** 0.053
27518 H 158.844 183.409 69.6064 H 0 **** 0.053
27519 H 156.307 182.608 68.1499 H 0 **** 0.053
27520 H 157.423 183.917 67.8077 H 0 **** 0.053
27521 H 157.899 182.419 66.0127 H 0 **** 0.053
27522 H 157.554 180.981 66.983 H 0 **** 0.053
27523 H 160.004 182.783 67.399 H 0 **** 0.053
27524 H 160.058 181.26 66.4867 H 0 **** 0.053
27525 H 160.786 181.253 69.0592 H 0 **** 0.053
27526 H 159.771 179.925 68.4562 H 0 **** 0.053
27527 H 156.828 178.125 68.8969 H 0 **** 0.053
27528 H 156.228 175.833 68.3345 H 0 **** 0.053
27529 H 149.447 175.391 71.4349 H 0 **** 0.053
27530 H 149.17 172.928 71.2285 H 0 **** 0.053
27531 H 150.522 171.127 70.7605 H 0 **** 0.053
27532 H 149.174 171.221 67.9935 H 0 **** 0.053
27533 H 147.865 170.883 70.7243 H 0 **** 0.053
27534 H 147.053 170.414 69.2122 H 0 **** 0.053
27535 H 146.734 172.91 70.2208 H 0 **** 0.053
27536 H 146.75 172.615 68.4764 H 0 **** 0.053
27537 H 148.272 174.558 69.4418 H 0 **** 0.053
27538 H 149.005 173.485 68.2444 H 0 **** 0.053
27539 H 148.967 192.408 72.8271 H 0 **** 0.053
27540 H 148.115 190.575 71.4231 H 0 **** 0.053
27541 H 147.517 189.695 72.85 H 0 **** 0.053
27542 H 149.265 189.889 72.5899 H 0 **** 0.053
27543 H 146.814 193.328 73.6625 H 0 **** 0.053
27544 H 146.076 191.71 73.5905 H 0 **** 0.053
27545 H 146.595 192.52 72.0931 H 0 **** 0.053
27546 H 148.82 180.146 75.6433 H 0 **** 0.41
27547 H 156.28 172.323 67.1259 H 0 **** 0.053
27548 H 157.136 170.003 66.305 H 0 **** 0.053
27549 H 156.733 167.517 65.9353 H 0 **** 0.053
27550 H 156.36 165.019 65.4961 H 0 **** 0.053
27551 H 154.797 162.896 65.7633 H 0 **** 0.053
27552 H 150.194 162.105 67.3934 H 0 **** 0.053
27553 H 152.555 161.884 66.5401 H 0 **** 0.053
27554 H 147.749 168.453 69.4378 H 0 **** 0.053
27555 H 147.31 166.769 70.4329 H 0 **** 0.053
27556 H 146.373 166.419 68.9683 H 0 **** 0.053
27557 H 145.765 164.793 70.7465 H 0 **** 0.053
27558 H 147.468 164.401 71.0047 H 0 **** 0.053
27559 H 145.907 163.921 68.3809 H 0 **** 0.053
27560 H 146.413 162.63 69.4938 H 0 **** 0.053
27561 C 164.675 177.11 8.90606 C.3 0 **** 0.054
27562 C 165.33 176.976 10.3113 C.3 0 **** -0.106
27563 C 166.547 176.01 10.2717 C.3 0 **** -0.053
27564 C 166.196 174.818 9.34998 C.3 0 **** -0.053
27565 C 165.829 175.333 7.92566 C.3 0 **** 0.054
27566 O 165.585 176.732 7.88591 O.3 0 **** -0.32
27567 C 165.046 173.964 9.96066 C.3 0 **** -0.053
27568 C 165.138 173.856 11.5307 C.3 0 **** 0.107
27569 C 166.562 174.122 12.0005 C.3 0 **** -0.106
27570 C 167.017 175.555 11.6757 C.3 0 **** -0.106
27571 O 164.752 172.581 12.0564 O.3 0 **** -0.32
27572 C 163.591 172.099 11.3982 C.3 0 **** 0.107
27573 C 164.035 171.582 10.0035 C.3 0 **** -0.053
27574 C 165.016 172.565 9.31315 C.3 0 **** -0.106
27575 C 162.912 171.204 9.07217 C.2 0 **** 0
27576 C 161.643 172.036 9.19116 C.3 0 **** 0
27577 C 161.293 172.516 10.5992 C.3 0 **** 0
27578 C 162.435 173.096 11.4242 C.3 0 **** -0.053
27579 C 160.034 173.356 10.6802 C.3 0 **** 0
27580 C 158.855 172.625 10.0465 C.3 0 **** 0
27581 C 159.242 172.234 8.57094 C.3 0 **** 0.16
27582 C 160.475 171.361 8.50101 C.3 0 **** 0
27583 C 160.777 170.827 7.07419 C.3 0 **** -0.106
27584 C 161.807 169.73 7.29946 C.3 0 **** -0.106
27585 C 162.958 170.172 8.19638 C.2 0 **** -0.1268
27586 O 158.212 171.825 7.64348 O.3 0 **** -0.32
27587 C 156.937 171.768 8.24575 C.3 0 **** 0.16
27588 C 156.516 173.01 9.09978 C.3 0 **** 0
27589 C 157.593 173.526 10.0878 C.3 0 **** 0
27590 C 161.929 173.422 12.8056 C.2 0 **** 0
27591 C 160.931 174.545 12.7861 C.3 0 **** -0.053
27592 C 159.704 173.897 12.0822 C.3 0 **** 0
27593 C 160.455 175.082 14.1179 C.2 0 **** 0
27594 C 160.668 174.322 15.224 C.2 0 **** 0
27595 C 161.504 173.051 15.2276 C.3 0 **** -0.106
27596 C 162.195 172.735 13.9108 C.2 0 **** -0.1268
27597 C 160.248 174.809 16.5916 C.3 0 **** -0.106
27598 C 158.961 175.611 16.4663 C.3 0 **** -0.106
27599 C 159.104 176.609 15.3303 C.2 0 **** 0
27600 C 159.852 176.31 14.2194 C.2 0 **** 0
27601 C 159.923 177.308 13.0797 C.3 0 **** -0.106
27602 C 159.488 178.714 13.4678 C.3 0 **** -0.053
27603 C 158.127 178.65 14.1806 C.3 0 **** -0.106
27604 C 158.269 177.862 15.4875 C.3 0 **** -0.106
27605 C 157.246 173.874 11.5411 C.3 0 **** 0.147
27606 C 158.378 174.704 12.1285 C.3 0 **** -0.053
27607 C 155.097 172.944 9.67528 C.3 0 **** 0
27608 C 154.659 174.126 10.5492 C.3 0 **** 0.147
27609 S 155.697 174.777 11.8361 S.3 0 **** -0.294
27610 C 153.222 174.091 10.9918 C.3 0 **** -0.053
27611 C 152.327 173.931 9.75539 C.3 0 **** 0
27612 C 152.704 172.65 8.91704 C.3 0 **** 0
27613 C 154.169 172.748 8.44406 C.3 0 **** 0
27614 C 151.77 172.558 7.71864 C.3 0 **** 0
27615 C 150.337 172.463 8.20097 C.3 0 **** 0
27616 C 149.892 173.692 9.10041 C.3 0 **** 0
27617 C 150.876 173.816 10.3212 C.3 0 **** -0.053
27618 C 148.458 173.39 9.61773 C.3 0 **** 0
27619 C 147.537 173.451 8.41916 C.3 0 **** 0.16
27620 C 147.94 172.483 7.30351 C.3 0 **** 0
27621 C 149.368 172.051 7.12794 C.3 0 **** 0
27622 C 154.61 171.601 7.49643 C.3 0 **** 0
27623 C 156.056 171.723 7.0239 C.3 0 **** -0.053
27624 C 152.186 171.623 6.56143 C.3 0 **** 0
27625 C 153.56 170.949 6.55651 C.3 0 **** 0
27626 C 149.834 171.57 5.75357 C.3 0 **** 0
27627 C 151.124 170.742 5.89785 C.3 0 **** 0
27628 C 146.884 171.882 6.37513 C.3 0 **** 0
27629 C 147.49 171.434 5.00723 C.3 0 **** 0
27630 C 148.789 170.615 5.12186 C.3 0 **** 0
27631 O 146.206 173.345 8.87698 O.3 0 **** -0.32
27632 C 145.881 174.7 9.18413 C.3 0 **** 0.107
27633 C 146.938 175.304 10.1643 C.3 0 **** -0.053
27634 C 147.797 174.192 10.7643 C.3 0 **** 0.107
27635 C 146.25 176.119 11.2685 C.3 0 **** -0.106
27636 C 145.077 176.922 10.6763 C.3 0 **** -0.106
27637 C 143.934 175.976 10.2605 C.3 0 **** 0.134
27638 C 144.473 174.619 9.73395 C.3 0 **** -0.053
27639 C 143.531 173.983 8.68105 C.3 0 **** -0.106
27640 C 142.081 174.288 9.03401 C.3 0 **** -0.106
27641 C 141.835 175.827 9.07072 C.3 0 **** 0.081
27642 N 143.038 176.619 9.32067 N.3 0 **** -0.727
27643 C 153.989 170.473 5.14247 C.3 0 **** 0.16
27644 C 152.921 169.54 4.59317 C.3 0 **** 0.16
27645 C 151.646 170.32 4.45027 C.3 0 **** 0
27646 O 153.248 168.924 3.36566 O.3 0 **** -0.32
27647 C 154.549 168.353 3.44635 C.3 0 **** 0.107
27648 C 155.538 169.43 3.77084 C.3 0 **** 0.107
27649 O 155.269 169.862 5.09408 O.3 0 **** -0.32
27650 C 155.481 170.606 2.76073 C.3 0 **** -0.106
27651 C 154.997 170.14 1.35753 C.3 0 **** -0.106
27652 C 155.438 168.685 1.10048 C.3 0 **** -0.106
27653 C 154.801 167.693 2.11416 C.3 0 **** -0.106
27654 C 149.262 170.148 3.67322 C.3 0 **** 0
27655 C 150.596 169.349 3.81868 C.3 0 **** -0.053
27656 C 146.461 170.546 4.2878 C.3 0 **** 0
27657 C 146.981 170.026 2.93165 C.3 0 **** 0.16
27658 C 148.239 169.251 2.99961 C.3 0 **** -0.053
27659 C 145.175 171.444 4.10265 C.3 0 **** 0
27660 C 144.626 171.921 5.50873 C.3 0 **** 0
27661 C 145.696 172.847 6.10738 C.3 0 **** -0.053
27662 O 146.071 169.298 2.17241 O.3 0 **** -0.32
27663 C 144.824 169.984 2.15328 C.3 0 **** 0.16
27664 C 144.189 170.426 3.53831 C.3 0 **** 0
27665 C 143.253 172.649 5.47152 C.3 0 **** -0.053
27666 C 142.269 171.828 4.64142 C.3 0 **** -0.053
27667 C 142.884 171.205 3.33195 C.3 0 **** 0
27668 C 141.184 172.7 4.11025 C.3 0 **** -0.053
27669 C 140.758 173.713 5.14028 C.3 0 **** -0.106
27670 C 141.916 174.734 5.33152 C.3 0 **** -0.106
27671 C 143.287 174.116 4.98973 C.3 0 **** -0.106
27672 C 141.891 170.251 2.7123 C.3 0 **** 0
27673 C 142.424 169.552 1.42663 C.3 0 **** 0
27674 C 143.875 169.078 1.41841 C.3 0 **** 0
27675 C 140.095 171.691 3.75641 C.3 0 **** 0
27676 C 140.534 170.89 2.5165 C.3 0 **** 0
27677 C 159.523 179.684 12.2583 C.3 0 **** -0.053
27678 C 158.377 179.449 11.2635 C.3 0 **** -0.159
27679 C 159.532 181.147 12.7169 C.3 0 **** -0.159
27680 O 148.69 174.714 11.7387 O.3 0 **** -0.57
27681 C 144.386 167.984 0.439133 C.3 0 **** -0.053
27682 C 143.446 167.639 -0.719909 C.3 0 **** -0.053
27683 C 141.993 167.556 -0.216111 C.3 0 **** 0
27684 C 141.48 168.868 0.454335 C.3 0 **** 0
27685 C 140.019 169.028 0.83773 C.3 0 **** 0
27686 C 139.029 168.164 0.113069 C.3 0 **** 0
27687 C 139.572 167.253 -1.01619 C.3 0 **** 0
27688 C 141.074 167.198 -1.38932 C.3 0 **** -0.053
27689 C 138.58 166.525 -1.91278 C.3 0 **** -0.053
27690 C 137.088 166.913 -1.81206 C.3 0 **** -0.053
27691 C 136.611 167.642 -0.517275 C.3 0 **** 0
27692 C 137.594 168.733 -0.0139685 C.3 0 **** 0
27693 C 137.124 169.365 1.35379 C.3 0 **** 0
27694 C 138.148 170.466 1.8276 C.3 0 **** 0
27695 C 139.542 169.843 2.04508 C.3 0 **** 0
27696 C 135.701 169.98 1.16399 C.3 0 **** 0
27697 C 134.724 168.843 0.681376 C.3 0 **** -0.053
27698 C 135.187 168.212 -0.646183 C.3 0 **** -0.053
27699 C 138.696 172.303 3.54078 C.3 0 **** -0.053
27700 C 137.714 171.087 3.21588 C.3 0 **** 0
27701 C 135.197 170.597 2.54713 C.3 0 **** 0.02
27702 C 136.232 171.619 3.13577 C.3 0 **** 0
27703 C 135.857 172.396 4.42021 C.3 0 **** -0.106
27704 C 134.469 172.016 4.85295 C.3 0 **** -0.106
27705 C 133.507 172.112 3.6744 C.3 0 **** -0.086
27706 C 133.831 171.277 2.49018 C.2 0 **** 0.379
27707 O 133.002 171.118 1.61099 O.2 0 **** -0.419
27708 H 164.389 178.151 8.70406 H 0 **** 0.053
27709 H 163.75 176.517 8.84979 H 0 **** 0.053
27710 H 165.665 177.956 10.702 H 0 **** 0.053
27711 H 164.582 176.617 11.0427 H 0 **** 0.053
27712 H 167.368 176.563 9.78676 H 0 **** 0.053
27713 H 167.082 174.159 9.29287 H 0 **** 0.053
27714 H 164.967 174.782 7.51239 H 0 **** 0.053
27715 H 166.664 175.16 7.23739 H 0 **** 0.053
27716 H 164.106 174.472 9.68287 H 0 **** 0.053
27717 H 164.5 174.635 11.9879 H 0 **** 0.053
27718 H 167.221 173.381 11.5093 H 0 **** 0.053
27719 H 166.622 173.92 13.0817 H 0 **** 0.053
27720 H 168.112 175.612 11.7469 H 0 **** 0.053
27721 H 166.62 176.239 12.4392 H 0 **** 0.053
27722 H 163.278 171.21 11.9501 H 0 **** 0.053
27723 H 164.592 170.655 10.1801 H 0 **** 0.053
27724 H 164.843 172.659 8.21868 H 0 **** 0.053
27725 H 166.031 172.143 9.42362 H 0 **** 0.053
27726 H 162.715 174.057 10.9663 H 0 **** 0.053
27727 H 159.852 170.422 6.61786 H 0 **** 0.053
27728 H 161.142 171.637 6.40855 H 0 **** 0.053
27729 H 162.183 169.348 6.34714 H 0 **** 0.053
27730 H 161.297 168.893 7.8118 H 0 **** 0.053
27731 H 163.865 169.587 8.07629 H 0 **** 0.1268
27732 H 161.326 175.37 12.1453 H 0 **** 0.053
27733 H 160.868 172.168 15.5361 H 0 **** 0.053
27734 H 162.303 173.145 16.0175 H 0 **** 0.053
27735 H 162.889 171.9 13.9204 H 0 **** 0.1268
27736 H 160.134 173.966 17.3081 H 0 **** 0.053
27737 H 161.059 175.452 16.9778 H 0 **** 0.053
27738 H 158.71 176.116 17.4201 H 0 **** 0.053
27739 H 158.117 174.932 16.2356 H 0 **** 0.053
27740 H 160.962 177.358 12.7229 H 0 **** 0.053
27741 H 159.32 176.963 12.2175 H 0 **** 0.053
27742 H 160.231 179.091 14.2013 H 0 **** 0.053
27743 H 157.395 178.15 13.5264 H 0 **** 0.053
27744 H 157.731 179.653 14.3917 H 0 **** 0.053
27745 H 157.26 177.613 15.8909 H 0 **** 0.053
27746 H 158.758 178.51 16.2499 H 0 **** 0.053
27747 H 158.089 175.028 13.1871 H 0 **** 0.053
27748 H 152.886 174.954 11.6414 H 0 **** 0.053
27749 H 150.677 174.802 10.8499 H 0 **** 0.053
27750 H 156.413 170.866 6.38183 H 0 **** 0.053
27751 H 145.868 175.277 8.24363 H 0 **** 0.053
27752 H 147.59 176.012 9.61143 H 0 **** 0.053
27753 H 147.138 173.477 11.2371 H 0 **** 0.053
27754 H 145.866 175.431 12.053 H 0 **** 0.053
27755 H 146.991 176.781 11.7719 H 0 **** 0.053
27756 H 145.46 177.465 9.79716 H 0 **** 0.053
27757 H 144.703 177.681 11.3817 H 0 **** 0.053
27758 H 143.351 175.758 11.1697 H 0 **** 0.053
27759 H 144.543 173.92 10.5925 H 0 **** 0.053
27760 H 143.742 174.452 7.70848 H 0 **** 0.053
27761 H 143.727 172.901 8.58263 H 0 **** 0.053
27762 H 141.879 173.839 10.0234 H 0 **** 0.053
27763 H 141.385 173.797 8.33246 H 0 **** 0.053
27764 H 141.099 176.061 9.8567 H 0 **** 0.053
27765 H 141.376 176.163 8.12417 H 0 **** 0.053
27766 H 143.528 176.784 8.46408 H 0 **** 0.353
27767 H 154.542 167.633 4.26379 H 0 **** 0.053
27768 H 156.544 169.018 3.75592 H 0 **** 0.053
27769 H 154.807 171.418 3.10589 H 0 **** 0.053
27770 H 156.473 171.096 2.66462 H 0 **** 0.053
27771 H 155.374 170.818 0.565268 H 0 **** 0.053
27772 H 153.891 170.2 1.3052 H 0 **** 0.053
27773 H 156.536 168.646 1.21213 H 0 **** 0.053
27774 H 155.207 168.378 0.0641686 H 0 **** 0.053
27775 H 155.417 166.779 2.19613 H 0 **** 0.053
27776 H 153.807 167.369 1.72727 H 0 **** 0.053
27777 H 150.929 169.014 2.77639 H 0 **** 0.053
27778 H 148.616 168.878 2.02466 H 0 **** 0.053
27779 H 145.275 173.26 7.06735 H 0 **** 0.053
27780 H 142.931 172.651 6.5038 H 0 **** 0.053
27781 H 141.876 171.013 5.28102 H 0 **** 0.053
27782 H 141.494 173.244 3.19236 H 0 **** 0.053
27783 H 140.546 173.182 6.08789 H 0 **** 0.053
27784 H 139.834 174.27 4.87318 H 0 **** 0.053
27785 H 141.931 175.089 6.38182 H 0 **** 0.053
27786 H 141.729 175.631 4.70998 H 0 **** 0.053
27787 H 144.097 174.703 5.46076 H 0 **** 0.053
27788 H 143.47 174.139 3.90771 H 0 **** 0.053
27789 H 160.476 179.505 11.7235 H 0 **** 0.053
27790 H 158.504 180.074 10.3652 H 0 **** 0.053
27791 H 157.406 179.707 11.7171 H 0 **** 0.053
27792 H 158.321 178.401 10.93 H 0 **** 0.053
27793 H 160.383 181.35 13.387 H 0 **** 0.053
27794 H 158.608 181.395 13.2625 H 0 **** 0.053
27795 H 159.612 181.832 11.8584 H 0 **** 0.053
27796 H 149.185 173.963 12.0622 H 0 **** 0.41
27797 H 145.493 167.982 0.229178 H 0 **** 0.053
27798 H 143.773 166.703 -1.25244 H 0 **** 0.053
27799 H 141.36 166.254 -1.93012 H 0 **** 0.053
27800 H 138.951 165.804 -2.68387 H 0 **** 0.053
27801 H 136.361 166.229 -2.31636 H 0 **** 0.053
27802 H 133.664 169.199 0.577558 H 0 **** 0.053
27803 H 134.479 167.447 -1.04145 H 0 **** 0.053
27804 H 138.336 172.86 4.47976 H 0 **** 0.053
27805 H 136.59 172.221 5.2277 H 0 **** 0.053
27806 H 135.931 173.441 4.1218 H 0 **** 0.053
27807 H 134.139 172.667 5.6602 H 0 **** 0.053
27808 H 134.486 170.983 5.25663 H 0 **** 0.053
27809 H 133.489 173.124 3.26359 H 0 **** 0.053
27810 H 132.489 171.788 3.8789 H 0 **** 0.053
27811 C 97.3132 180.726 1.83167 C.3 0 **** 0.054
27812 C 96.8269 179.377 1.22823 C.3 0 **** -0.106
27813 C 96.2698 178.438 2.33392 C.3 0 **** -0.053
27814 C 97.1733 178.565 3.58403 C.3 0 **** -0.053
27815 C 97.2175 180.047 4.06315 C.3 0 **** 0.054
27816 O 96.7161 180.959 3.09665 O.3 0 **** -0.32
27817 C 98.6017 178.016 3.29531 C.3 0 **** -0.053
27818 C 98.5871 176.752 2.35341 C.3 0 **** 0.107
27819 C 97.2279 176.064 2.40466 C.3 0 **** -0.106
27820 C 96.1057 176.969 1.86896 C.3 0 **** -0.106
27821 O 99.5709 175.764 2.67942 O.3 0 **** -0.32
27822 C 100.812 176.377 2.99257 C.3 0 **** 0.107
27823 C 100.683 176.97 4.42105 C.3 0 **** -0.053
27824 C 99.3348 177.71 4.61682 C.3 0 **** -0.106
27825 C 101.837 177.834 4.86326 C.2 0 **** 0
27826 C 102.507 178.655 3.77081 C.3 0 **** 0
27827 C 102.573 177.999 2.3923 C.3 0 **** 0
27828 C 101.3 177.324 1.89816 C.3 0 **** -0.053
27829 C 103.23 178.85 1.32391 C.3 0 **** 0
27830 C 104.613 179.31 1.77391 C.3 0 **** 0
27831 C 104.469 180.055 3.15356 C.3 0 **** 0.16
27832 C 103.851 179.185 4.22614 C.3 0 **** 0
27833 C 103.854 179.84 5.63438 C.3 0 **** -0.106
27834 C 103.527 178.693 6.57795 C.3 0 **** -0.106
27835 C 102.317 177.882 6.12873 C.2 0 **** -0.1268
27836 O 105.558 180.865 3.64861 O.3 0 **** -0.32
27837 C 106.689 180.821 2.80423 C.3 0 **** 0.16
27838 C 106.425 181.037 1.27697 C.3 0 **** 0
27839 C 105.241 180.226 0.691409 C.3 0 **** 0
27840 C 101.578 176.653 0.577953 C.2 0 **** 0
27841 C 101.866 177.651 -0.50774 C.3 0 **** -0.053
27842 C 103.247 178.227 -0.0826801 C.3 0 **** 0
27843 C 102.01 177.127 -1.91947 C.2 0 **** 0
27844 C 102.22 175.795 -2.08669 C.2 0 **** 0
27845 C 102.148 174.78 -0.955667 C.3 0 **** -0.106
27846 C 101.706 175.345 0.384247 C.2 0 **** -0.1268
27847 C 102.343 175.197 -3.46902 C.3 0 **** -0.106
27848 C 103.043 176.19 -4.386 C.3 0 **** -0.106
27849 C 102.405 177.558 -4.21848 C.2 0 **** 0
27850 C 101.906 177.96 -3.00467 C.2 0 **** 0
27851 C 101.33 179.356 -2.86246 C.3 0 **** -0.106
27852 C 100.991 180.018 -4.19006 C.3 0 **** -0.053
27853 C 102.2 179.916 -5.1351 C.3 0 **** -0.106
27854 C 102.487 178.443 -5.44438 C.3 0 **** -0.106
27855 C 105.372 179.46 -0.631429 C.3 0 **** 0.147
27856 C 103.979 179.107 -1.13162 C.3 0 **** -0.053
27857 C 107.683 181.057 0.402496 C.3 0 **** 0
27858 C 107.465 181.232 -1.10561 C.3 0 **** 0.147
27859 S 106.249 180.286 -1.99144 S.3 0 **** -0.294
27860 C 108.722 181.373 -1.91761 C.3 0 **** -0.053
27861 C 109.566 182.511 -1.32791 C.3 0 **** 0
27862 C 109.889 182.275 0.197642 C.3 0 **** 0
27863 C 108.575 182.181 1.00055 C.3 0 **** 0
27864 C 110.732 183.437 0.704674 C.3 0 **** 0
27865 C 112.017 183.514 -0.0942885 C.3 0 **** 0
27866 C 111.78 183.698 -1.65217 C.3 0 **** 0
27867 C 110.878 182.521 -2.17574 C.3 0 **** -0.053
27868 C 113.172 183.631 -2.3414 C.3 0 **** 0
27869 C 113.926 184.876 -1.92877 C.3 0 **** 0.16
27870 C 114.065 185.016 -0.409856 C.3 0 **** 0
27871 C 113.054 184.412 0.521598 C.3 0 **** 0
27872 C 108.772 182.082 2.53677 C.3 0 **** 0
27873 C 107.463 182.009 3.31581 C.3 0 **** -0.053
27874 C 110.842 183.623 2.23412 C.3 0 **** 0
27875 C 110.002 182.771 3.18799 C.3 0 **** 0
27876 C 112.889 185.003 1.92198 C.3 0 **** 0
27877 C 112.201 183.979 2.84464 C.3 0 **** 0
27878 C 115.274 185.728 0.198806 C.3 0 **** 0
27879 C 114.971 186.284 1.62658 C.3 0 **** 0
27880 C 114.271 185.285 2.56578 C.3 0 **** 0
27881 O 115.129 184.93 -2.66571 O.3 0 **** -0.32
27882 C 114.721 185.586 -3.86538 C.3 0 **** 0.107
27883 C 113.51 184.837 -4.50956 C.3 0 **** -0.053
27884 C 113.34 183.461 -3.87044 C.3 0 **** 0.107
27885 C 113.695 184.716 -6.02928 C.3 0 **** -0.106
27886 C 114.293 186.018 -6.59286 C.3 0 **** -0.106
27887 C 115.755 186.18 -6.13642 C.3 0 **** 0.134
27888 C 115.978 185.613 -4.70868 C.3 0 **** -0.053
27889 C 117.106 186.358 -3.95147 C.3 0 **** -0.106
27890 C 118.201 186.765 -4.92794 C.3 0 **** -0.106
27891 C 117.631 187.702 -6.03662 C.3 0 **** 0.081
27892 N 116.194 187.555 -6.26104 N.3 0 **** -0.727
27893 C 109.866 183.407 4.59749 C.3 0 **** 0.16
27894 C 111.257 183.65 5.16312 C.3 0 **** 0.16
27895 C 111.957 184.639 4.27638 C.3 0 **** 0
27896 O 111.281 184.101 6.50028 O.3 0 **** -0.32
27897 C 110.452 183.269 7.30373 C.3 0 **** 0.107
27898 C 109.054 183.303 6.76528 C.3 0 **** 0.107
27899 O 109.075 182.655 5.50447 O.3 0 **** -0.32
27900 C 108.499 184.747 6.65958 C.3 0 **** -0.106
27901 C 109.144 185.694 7.71236 C.3 0 **** -0.106
27902 C 109.503 184.903 8.98662 C.3 0 **** -0.106
27903 C 110.563 183.799 8.71077 C.3 0 **** -0.106
27904 C 114.093 185.937 4.00886 C.3 0 **** 0
27905 C 113.351 184.915 4.92869 C.3 0 **** -0.053
27906 C 116.303 186.668 2.29219 C.3 0 **** 0
27907 C 116.114 187.204 3.72461 C.3 0 **** 0.16
27908 C 115.425 186.282 4.64998 C.3 0 **** -0.053
27909 C 116.953 187.759 1.35266 C.3 0 **** 0
27910 C 117.193 187.169 -0.0977749 C.3 0 **** 0
27911 C 115.804 186.885 -0.690989 C.3 0 **** -0.053
27912 O 117.263 187.663 4.35532 O.3 0 **** -0.32
27913 C 117.986 188.5 3.46036 C.3 0 **** 0.16
27914 C 118.316 187.938 2.01413 C.3 0 **** 0
27915 C 118.004 188.084 -1.05822 C.3 0 **** -0.053
27916 C 119.264 188.571 -0.34599 C.3 0 **** -0.053
27917 C 119.043 188.983 1.1583 C.3 0 **** 0
27918 C 119.751 189.838 -0.962606 C.3 0 **** -0.053
27919 C 119.609 189.794 -2.46104 C.3 0 **** -0.106
27920 C 118.094 189.837 -2.81126 C.3 0 **** -0.106
27921 C 117.226 189.269 -1.66963 C.3 0 **** -0.106
27922 C 120.38 189.24 1.81339 C.3 0 **** 0
27923 C 120.263 189.622 3.31906 C.3 0 **** 0
27924 C 119.263 188.846 4.17419 C.3 0 **** 0
27925 C 121.2 189.899 -0.485616 C.3 0 **** 0
27926 C 121.221 190.216 1.0209 C.3 0 **** 0
27927 C 100.46 181.462 -3.99542 C.3 0 **** -0.053
27928 C 101.56 182.463 -3.61186 C.3 0 **** -0.159
27929 C 99.7106 181.953 -5.23991 C.3 0 **** -0.159
27930 O 112.312 182.726 -4.52029 O.3 0 **** -0.57
27931 C 119.366 188.79 5.72508 C.3 0 **** -0.053
27932 C 120.347 189.777 6.36638 C.3 0 **** -0.053
27933 C 121.644 189.849 5.53842 C.3 0 **** 0
27934 C 121.422 190.273 4.05267 C.3 0 **** 0
27935 C 122.6 190.582 3.14512 C.3 0 **** 0
27936 C 123.888 190.967 3.81227 C.3 0 **** 0
27937 C 123.878 191.102 5.35585 C.3 0 **** 0
27938 C 122.61 190.836 6.20434 C.3 0 **** -0.053
27939 C 125.097 191.695 6.04817 C.3 0 **** -0.053
27940 C 126.184 192.354 5.17027 C.3 0 **** -0.053
27941 C 126.232 191.967 3.65951 C.3 0 **** 0
27942 C 124.834 191.878 2.99119 C.3 0 **** 0
27943 C 124.925 191.381 1.49554 C.3 0 **** 0
27944 C 123.487 191.305 0.856146 C.3 0 **** 0
27945 C 122.605 190.31 1.63673 C.3 0 **** 0
27946 C 125.837 192.362 0.690801 C.3 0 **** 0
27947 C 127.252 192.407 1.37738 C.3 0 **** -0.053
27948 C 127.168 192.876 2.84276 C.3 0 **** -0.053
27949 C 122.092 190.889 -1.26244 C.3 0 **** -0.053
27950 C 123.553 190.773 -0.631649 C.3 0 **** 0
27951 C 125.965 191.855 -0.817507 C.3 0 **** 0.02
27952 C 124.558 191.646 -1.47877 C.3 0 **** 0
27953 C 124.493 191.26 -2.97572 C.3 0 **** -0.106
27954 C 125.884 191.196 -3.54022 C.3 0 **** -0.106
27955 C 126.656 192.46 -3.17875 C.3 0 **** -0.086
27956 C 126.794 192.755 -1.73048 C.2 0 **** 0.379
27957 O 127.584 193.603 -1.35262 O.2 0 **** -0.419
27958 H 97.0287 181.569 1.18793 H 0 **** 0.053
27959 H 98.4117 180.746 1.90343 H 0 **** 0.053
27960 H 96.0415 179.53 0.462298 H 0 **** 0.053
27961 H 97.6578 178.883 0.690706 H 0 **** 0.053
27962 H 95.2788 178.833 2.60981 H 0 **** 0.053
27963 H 96.7451 177.927 4.37951 H 0 **** 0.053
27964 H 98.238 180.336 4.3694 H 0 **** 0.053
27965 H 96.5826 180.175 4.94668 H 0 **** 0.053
27966 H 99.1498 178.835 2.79956 H 0 **** 0.053
27967 H 98.7421 177.074 1.3074 H 0 **** 0.053
27968 H 97.0353 175.782 3.45691 H 0 **** 0.053
27969 H 97.2864 175.122 1.8372 H 0 **** 0.053
27970 H 95.1342 176.573 2.19589 H 0 **** 0.053
27971 H 96.1044 176.926 0.770552 H 0 **** 0.053
27972 H 101.537 175.565 3.07958 H 0 **** 0.053
27973 H 100.677 176.118 5.11003 H 0 **** 0.053
27974 H 99.429 178.639 5.21992 H 0 **** 0.053
27975 H 98.6767 177.038 5.1964 H 0 **** 0.053
27976 H 100.567 178.118 1.68937 H 0 **** 0.053
27977 H 104.853 180.267 5.85189 H 0 **** 0.053
27978 H 103.124 180.675 5.69297 H 0 **** 0.053
27979 H 103.391 179.056 7.59957 H 0 **** 0.053
27980 H 104.395 178.008 6.58435 H 0 **** 0.053
27981 H 101.833 177.326 6.92622 H 0 **** 0.1268
27982 H 101.102 178.465 -0.464016 H 0 **** 0.053
27983 H 103.146 174.264 -0.831838 H 0 **** 0.053
27984 H 101.417 173.971 -1.24272 H 0 **** 0.053
27985 H 101.532 174.623 1.17677 H 0 **** 0.1268
27986 H 102.874 174.221 -3.44635 H 0 **** 0.053
27987 H 101.32 174.998 -3.83559 H 0 **** 0.053
27988 H 103.007 175.853 -5.44109 H 0 **** 0.053
27989 H 104.113 176.264 -4.11231 H 0 **** 0.053
27990 H 100.407 179.294 -2.26606 H 0 **** 0.053
27991 H 102.019 180.009 -2.2927 H 0 **** 0.053
27992 H 100.165 179.432 -4.64222 H 0 **** 0.053
27993 H 103.08 180.369 -4.65128 H 0 **** 0.053
27994 H 102.034 180.467 -6.07184 H 0 **** 0.053
27995 H 103.485 178.345 -5.93133 H 0 **** 0.053
27996 H 101.741 178.076 -6.18553 H 0 **** 0.053
27997 H 104.069 178.602 -2.15401 H 0 **** 0.053
27998 H 108.576 181.497 -3.03247 H 0 **** 0.053
27999 H 110.55 182.758 -3.23779 H 0 **** 0.053
28000 H 107.587 181.875 4.43037 H 0 **** 0.053
28001 H 114.433 186.621 -3.61507 H 0 **** 0.053
28002 H 112.586 185.431 -4.35287 H 0 **** 0.053
28003 H 114.274 182.925 -3.97199 H 0 **** 0.053
28004 H 114.38 183.869 -6.25288 H 0 **** 0.053
28005 H 112.723 184.464 -6.51217 H 0 **** 0.053
28006 H 113.68 186.852 -6.21307 H 0 **** 0.053
28007 H 114.232 186.053 -7.69199 H 0 **** 0.053
28008 H 116.374 185.577 -6.8204 H 0 **** 0.053
28009 H 116.279 184.549 -4.80372 H 0 **** 0.053
28010 H 116.68 187.279 -3.52667 H 0 **** 0.053
28011 H 117.487 185.746 -3.11505 H 0 **** 0.053
28012 H 118.61 185.84 -5.37356 H 0 **** 0.053
28013 H 119.046 187.247 -4.40609 H 0 **** 0.053
28014 H 118.15 187.501 -6.98719 H 0 **** 0.053
28015 H 117.85 188.756 -5.79481 H 0 **** 0.053
28016 H 115.682 188.118 -5.61112 H 0 **** 0.353
28017 H 110.83 182.25 7.2207 H 0 **** 0.053
28018 H 108.399 182.734 7.41909 H 0 **** 0.053
28019 H 108.669 185.185 5.65299 H 0 **** 0.053
28020 H 107.395 184.759 6.78064 H 0 **** 0.053
28021 H 108.47 186.542 7.94523 H 0 **** 0.053
28022 H 110.065 186.146 7.2926 H 0 **** 0.053
28023 H 108.579 184.421 9.3502 H 0 **** 0.053
28024 H 109.851 185.58 9.78772 H 0 **** 0.053
28025 H 110.498 183.005 9.47698 H 0 **** 0.053
28026 H 111.58 184.244 8.80381 H 0 **** 0.053
28027 H 113.228 185.388 5.96356 H 0 **** 0.053
28028 H 115.284 186.663 5.68237 H 0 **** 0.053
28029 H 115.962 186.55 -1.75491 H 0 **** 0.053
28030 H 118.287 187.426 -1.86874 H 0 **** 0.053
28031 H 120.021 187.764 -0.395223 H 0 **** 0.053
28032 H 119.202 190.727 -0.584571 H 0 **** 0.053
28033 H 120.068 188.857 -2.82969 H 0 **** 0.053
28034 H 120.12 190.628 -2.98935 H 0 **** 0.053
28035 H 117.907 189.251 -3.73343 H 0 **** 0.053
28036 H 117.794 190.876 -3.04426 H 0 **** 0.053
28037 H 116.233 188.976 -2.05722 H 0 **** 0.053
28038 H 117.05 190.027 -0.895185 H 0 **** 0.053
28039 H 99.7275 181.432 -3.16611 H 0 **** 0.053
28040 H 101.127 183.446 -3.36914 H 0 **** 0.053
28041 H 102.268 182.604 -4.44471 H 0 **** 0.053
28042 H 102.139 182.132 -2.73526 H 0 **** 0.053
28043 H 98.8796 181.277 -5.49771 H 0 **** 0.053
28044 H 100.384 182.005 -6.11017 H 0 **** 0.053
28045 H 99.288 182.956 -5.07892 H 0 **** 0.053
28046 H 112.269 181.886 -4.06546 H 0 **** 0.41
28047 H 118.415 188.561 6.28328 H 0 **** 0.053
28048 H 120.538 189.527 7.44758 H 0 **** 0.053
28049 H 122.84 190.602 7.28048 H 0 **** 0.053
28050 H 125.139 191.731 7.16663 H 0 **** 0.053
28051 H 127.155 192.585 5.67386 H 0 **** 0.053
28052 H 127.984 193.051 0.81932 H 0 **** 0.053
28053 H 128.164 192.977 3.3323 H 0 **** 0.053
28054 H 122.123 190.631 -2.38231 H 0 **** 0.053
28055 H 123.957 190.307 -3.12523 H 0 **** 0.053
28056 H 123.896 192.054 -3.42208 H 0 **** 0.053
28057 H 125.843 191.079 -4.6217 H 0 **** 0.053
28058 H 126.398 190.3 -3.13781 H 0 **** 0.053
28059 H 126.154 193.351 -3.56456 H 0 **** 0.053
28060 H 127.699 192.472 -3.48923 H 0 **** 0.053
28061 C 172.915 94.0197 64.8015 C.3 0 **** 0.054
28062 C 172.34 94.2395 63.3726 C.3 0 **** -0.106
28063 C 173.479 94.3832 62.3259 C.3 0 **** -0.053
28064 C 174.616 95.226 62.9536 C.3 0 **** -0.053
28065 C 175.124 94.5486 64.2618 C.3 0 **** 0.054
28066 O 174.248 93.5389 64.742 O.3 0 **** -0.32
28067 C 174.145 96.6873 63.2138 C.3 0 **** -0.053
28068 C 173.179 97.2232 62.0886 C.3 0 **** 0.107
28069 C 173.374 96.4355 60.7988 C.3 0 **** -0.106
28070 C 173 94.9537 60.9677 C.3 0 **** -0.106
28071 O 173.36 98.6071 61.7686 O.3 0 **** -0.32
28072 C 173.539 99.3745 62.9488 C.3 0 **** 0.107
28073 C 174.987 99.1225 63.4463 C.3 0 **** -0.053
28074 C 175.361 97.6191 63.3863 C.3 0 **** -0.106
28075 C 175.31 99.7015 64.8 C.2 0 **** 0
28076 C 174.167 99.7156 65.8052 C.3 0 **** 0
28077 C 172.775 99.9536 65.2239 C.3 0 **** 0
28078 C 172.419 99.1692 63.967 C.3 0 **** -0.053
28079 C 171.657 99.9453 66.2484 C.3 0 **** 0
28080 C 171.951 100.929 67.3759 C.3 0 **** 0
28081 C 173.356 100.579 67.9933 C.3 0 **** 0.16
28082 C 174.472 100.631 66.9734 C.3 0 **** 0
28083 C 175.886 100.455 67.5914 C.3 0 **** -0.106
28084 C 176.833 100.883 66.4797 C.3 0 **** -0.106
28085 C 176.51 100.229 65.1409 C.2 0 **** -0.1268
28086 O 173.738 101.137 69.2701 O.3 0 **** -0.32
28087 C 172.764 102.02 69.7847 C.3 0 **** 0.16
28088 C 171.286 101.508 69.7712 C.3 0 **** 0
28089 C 170.825 100.86 68.4409 C.3 0 **** 0
28090 C 171.059 99.6016 63.4863 C.2 0 **** 0
28091 C 169.972 99.2018 64.4435 C.3 0 **** -0.053
28092 C 170.243 100.121 65.6682 C.3 0 **** 0
28093 C 168.54 99.4341 64.0136 C.2 0 **** 0
28094 C 168.315 100.286 62.9795 C.2 0 **** 0
28095 C 169.423 100.885 62.1269 C.3 0 **** -0.106
28096 C 170.819 100.371 62.4313 C.2 0 **** -0.1268
28097 C 166.914 100.541 62.4746 C.3 0 **** -0.106
28098 C 165.945 100.511 63.648 C.3 0 **** -0.106
28099 C 166.222 99.279 64.4926 C.2 0 **** 0
28100 C 167.496 98.7879 64.6259 C.2 0 **** 0
28101 C 167.742 97.591 65.5254 C.3 0 **** -0.106
28102 C 166.481 96.8073 65.862 C.3 0 **** -0.053
28103 C 165.397 97.7755 66.3639 C.3 0 **** -0.106
28104 C 165.018 98.748 65.2415 C.3 0 **** -0.106
28105 C 169.477 101.216 67.801 C.3 0 **** 0.147
28106 C 169.137 100.162 66.7573 C.3 0 **** -0.053
28107 C 170.268 102.463 70.4058 C.3 0 **** 0
28108 C 168.802 102.014 70.3798 C.3 0 **** 0.147
28109 S 168.043 101.372 68.9065 S.3 0 **** -0.294
28110 C 167.849 102.911 71.1212 C.3 0 **** -0.053
28111 C 168.363 103.102 72.5544 C.3 0 **** 0
28112 C 169.833 103.673 72.5817 C.3 0 **** 0
28113 C 170.784 102.702 71.8524 C.3 0 **** 0
28114 C 170.265 103.842 74.0308 C.3 0 **** 0
28115 C 169.321 104.797 74.7317 C.3 0 **** 0
28116 C 167.808 104.322 74.7025 C.3 0 **** 0
28117 C 167.365 104.11 73.2087 C.3 0 **** -0.053
28118 C 166.956 105.455 75.3398 C.3 0 **** 0
28119 C 167.307 105.495 76.8109 C.3 0 **** 0.16
28120 C 168.802 105.714 77.0639 C.3 0 **** 0
28121 C 169.831 105.28 76.061 C.3 0 **** 0
28122 C 172.283 103.097 71.9317 C.3 0 **** 0
28123 C 173.21 102.117 71.2211 C.3 0 **** -0.053
28124 C 171.775 104.014 74.3093 C.3 0 **** 0
28125 C 172.8 103.856 73.1839 C.3 0 **** 0
28126 C 171.256 104.994 76.536 C.3 0 **** 0
28127 C 172.228 105.05 75.3423 C.3 0 **** 0
28128 C 169.28 106.438 78.323 C.3 0 **** 0
28129 C 170.747 106.058 78.6991 C.3 0 **** 0
28130 C 171.737 106.091 77.5206 C.3 0 **** 0
28131 O 166.434 106.4 77.4511 O.3 0 **** -0.32
28132 C 165.308 105.576 77.7517 C.3 0 **** 0.107
28133 C 164.794 104.865 76.4581 C.3 0 **** -0.053
28134 C 165.414 105.511 75.2201 C.3 0 **** 0.107
28135 C 163.261 104.91 76.3889 C.3 0 **** -0.106
28136 C 162.663 104.675 77.7884 C.3 0 **** -0.106
28137 C 162.946 105.881 78.7035 C.3 0 **** 0.134
28138 C 164.322 106.529 78.3925 C.3 0 **** -0.053
28139 C 164.958 107.184 79.6437 C.3 0 **** -0.106
28140 C 163.869 107.787 80.521 C.3 0 **** -0.106
28141 C 162.86 106.69 80.98 C.3 0 **** 0.081
28142 N 162.805 105.523 80.1007 N.3 0 **** -0.727
28143 C 174.231 103.573 73.7135 C.3 0 **** 0.16
28144 C 174.633 104.689 74.665 C.3 0 **** 0.16
28145 C 173.695 104.665 75.8373 C.3 0 **** 0
28146 O 175.969 104.629 75.1173 O.3 0 **** -0.32
28147 C 176.844 104.452 74.0085 C.3 0 **** 0.107
28148 C 176.477 103.189 73.2912 C.3 0 **** 0.107
28149 O 175.207 103.398 72.6977 O.3 0 **** -0.32
28150 C 176.475 101.956 74.2322 C.3 0 **** -0.106
28151 C 177.468 102.132 75.4177 C.3 0 **** -0.106
28152 C 178.669 102.993 74.9799 C.3 0 **** -0.106
28153 C 178.241 104.432 74.5758 C.3 0 **** -0.106
28154 C 173.208 105.768 78.0432 C.3 0 **** 0
28155 C 174.183 105.777 76.8227 C.3 0 **** -0.053
28156 C 171.258 107.063 79.744 C.3 0 **** 0
28157 C 172.717 106.789 80.1609 C.3 0 **** 0.16
28158 C 173.694 106.792 79.0525 C.3 0 **** -0.053
28159 C 170.276 106.938 80.975 C.3 0 **** 0
28160 C 168.793 107.28 80.5379 C.3 0 **** 0
28161 C 168.363 106.183 79.551 C.3 0 **** -0.053
28162 O 173.219 107.595 81.176 O.3 0 **** -0.32
28163 C 172.264 107.67 82.2282 C.3 0 **** 0.16
28164 C 170.774 108.076 81.8612 C.3 0 **** 0
28165 C 167.767 107.381 81.7007 C.3 0 **** -0.053
28166 C 168.336 108.276 82.7994 C.3 0 **** -0.053
28167 C 169.865 108.049 83.0966 C.3 0 **** 0
28168 C 167.698 107.959 84.1089 C.3 0 **** -0.053
28169 C 166.227 107.69 83.9371 C.3 0 **** -0.106
28170 C 166.061 106.344 83.1738 C.3 0 **** -0.106
28171 C 167.283 106.036 82.2844 C.3 0 **** -0.106
28172 C 170.362 109.122 84.0361 C.3 0 **** 0
28173 C 171.881 109.004 84.3611 C.3 0 **** 0
28174 C 172.83 108.648 83.2203 C.3 0 **** 0
28175 C 168 109.209 84.9316 C.3 0 **** 0
28176 C 169.501 109.235 85.2745 C.3 0 **** 0
28177 C 166.775 95.6299 66.8274 C.3 0 **** -0.053
28178 C 167.05 96.0854 68.268 C.3 0 **** -0.159
28179 C 165.642 94.5975 66.8078 C.3 0 **** -0.159
28180 O 164.872 104.947 74.0329 O.3 0 **** -0.57
28181 C 174.354 108.952 83.2824 C.3 0 **** -0.053
28182 C 174.898 109.342 84.6603 C.3 0 **** -0.053
28183 C 173.924 110.304 85.3644 C.3 0 **** 0
28184 C 172.488 109.724 85.5507 C.3 0 **** 0
28185 C 171.454 110.46 86.3854 C.3 0 **** 0
28186 C 171.973 111.422 87.4132 C.3 0 **** 0
28187 C 173.51 111.529 87.5785 C.3 0 **** 0
28188 C 174.495 110.686 86.7338 C.3 0 **** -0.053
28189 C 174.067 112.323 88.7524 C.3 0 **** -0.053
28190 C 173.082 112.807 89.8392 C.3 0 **** -0.053
28191 C 171.567 112.872 89.4741 C.3 0 **** 0
28192 C 171.068 111.659 88.647 C.3 0 **** 0
28193 C 169.56 111.821 88.2092 C.3 0 **** 0
28194 C 169.095 110.569 87.3734 C.3 0 **** 0
28195 C 169.949 110.43 86.0967 C.3 0 **** 0
28196 C 168.678 111.991 89.487 C.3 0 **** 0
28197 C 169.191 113.245 90.2877 C.3 0 **** -0.053
28198 C 170.668 113.098 90.7034 C.3 0 **** -0.053
28199 C 167.148 109.36 86.2088 C.3 0 **** -0.053
28200 C 167.597 110.73 86.8928 C.3 0 **** 0
28201 C 167.152 112.189 89.0605 C.3 0 **** 0.02
28202 C 166.659 111.03 88.1249 C.3 0 **** 0
28203 C 165.171 111.003 87.7019 C.3 0 **** -0.106
28204 C 164.443 112.149 88.3457 C.3 0 **** -0.106
28205 C 164.742 112.188 89.84 C.3 0 **** -0.086
28206 C 166.17 112.318 90.2218 C.2 0 **** 0.379
28207 O 166.473 112.588 91.3717 O.2 0 **** -0.419
28208 H 172.332 93.2664 65.3483 H 0 **** 0.053
28209 H 172.856 94.9472 65.3918 H 0 **** 0.053
28210 H 171.677 93.4065 63.0656 H 0 **** 0.053
28211 H 171.694 95.1375 63.3604 H 0 **** 0.053
28212 H 173.882 93.3704 62.1611 H 0 **** 0.053
28213 H 175.44 95.2863 62.2193 H 0 **** 0.053
28214 H 175.314 95.2976 65.0503 H 0 **** 0.053
28215 H 176.08 94.046 64.0778 H 0 **** 0.053
28216 H 173.608 96.6682 64.1783 H 0 **** 0.053
28217 H 172.131 97.0666 62.4025 H 0 **** 0.053
28218 H 174.434 96.5406 60.4999 H 0 **** 0.053
28219 H 172.78 96.9093 60.0016 H 0 **** 0.053
28220 H 173.43 94.3744 60.1392 H 0 **** 0.053
28221 H 171.909 94.8483 60.8864 H 0 **** 0.053
28222 H 173.517 100.42 62.6355 H 0 **** 0.053
28223 H 175.65 99.639 62.743 H 0 **** 0.053
28224 H 175.972 97.2853 64.2534 H 0 **** 0.053
28225 H 175.998 97.4775 62.4952 H 0 **** 0.053
28226 H 172.32 98.1121 64.2567 H 0 **** 0.053
28227 H 175.994 101.105 68.4823 H 0 **** 0.053
28228 H 176.053 99.4107 67.9274 H 0 **** 0.053
28229 H 177.872 100.697 66.761 H 0 **** 0.053
28230 H 176.718 101.975 66.3447 H 0 **** 0.053
28231 H 177.345 100.199 64.4479 H 0 **** 0.1268
28232 H 170.127 98.1372 64.7439 H 0 **** 0.053
28233 H 169.412 102.013 62.2035 H 0 **** 0.053
28234 H 169.217 100.649 61.0488 H 0 **** 0.053
28235 H 171.606 100.689 61.7535 H 0 **** 0.1268
28236 H 166.847 101.5 61.9166 H 0 **** 0.053
28237 H 166.667 99.7352 61.7596 H 0 **** 0.053
28238 H 164.893 100.534 63.2997 H 0 **** 0.053
28239 H 166.09 101.41 64.2772 H 0 **** 0.053
28240 H 168.442 96.911 65.0182 H 0 **** 0.053
28241 H 168.242 97.9014 66.4632 H 0 **** 0.053
28242 H 166.116 96.3604 64.9143 H 0 **** 0.053
28243 H 165.784 98.341 67.2267 H 0 **** 0.053
28244 H 164.501 97.2408 66.7105 H 0 **** 0.053
28245 H 164.413 99.5878 65.6563 H 0 **** 0.053
28246 H 164.362 98.2216 64.5123 H 0 **** 0.053
28247 H 168.099 100.384 66.3312 H 0 **** 0.053
28248 H 166.763 102.594 71.1059 H 0 **** 0.053
28249 H 166.356 103.587 73.1981 H 0 **** 0.053
28250 H 174.298 102.419 71.2168 H 0 **** 0.053
28251 H 165.618 104.823 78.4966 H 0 **** 0.053
28252 H 165.075 103.792 76.4919 H 0 **** 0.053
28253 H 165.188 106.568 75.2433 H 0 **** 0.053
28254 H 162.935 105.904 76.0123 H 0 **** 0.053
28255 H 162.891 104.162 75.6504 H 0 **** 0.053
28256 H 163.135 103.766 78.1987 H 0 **** 0.053
28257 H 161.581 104.478 77.7428 H 0 **** 0.053
28258 H 162.178 106.639 78.4816 H 0 **** 0.053
28259 H 164.165 107.325 77.6359 H 0 **** 0.053
28260 H 165.454 106.394 80.2267 H 0 **** 0.053
28261 H 165.727 107.921 79.3527 H 0 **** 0.053
28262 H 163.354 108.562 79.925 H 0 **** 0.053
28263 H 164.298 108.312 81.3914 H 0 **** 0.053
28264 H 161.85 107.125 81.0397 H 0 **** 0.053
28265 H 163.101 106.355 82.004 H 0 **** 0.053
28266 H 163.526 104.873 80.3424 H 0 **** 0.353
28267 H 176.69 105.292 73.3313 H 0 **** 0.053
28268 H 177.19 103.005 72.4912 H 0 **** 0.053
28269 H 175.467 101.757 74.6533 H 0 **** 0.053
28270 H 176.728 101.03 73.6745 H 0 **** 0.053
28271 H 177.801 101.147 75.8018 H 0 **** 0.053
28272 H 176.953 102.628 76.265 H 0 **** 0.053
28273 H 179.128 102.503 74.1036 H 0 **** 0.053
28274 H 179.44 103.029 75.7712 H 0 **** 0.053
28275 H 178.989 104.879 73.8944 H 0 **** 0.053
28276 H 178.223 105.073 75.4867 H 0 **** 0.053
28277 H 175.237 105.547 77.2038 H 0 **** 0.053
28278 H 174.745 106.592 79.3479 H 0 **** 0.053
28279 H 167.28 106.369 79.3037 H 0 **** 0.053
28280 H 166.912 107.869 81.253 H 0 **** 0.053
28281 H 168.176 109.33 82.5004 H 0 **** 0.053
28282 H 168.162 107.076 84.598 H 0 **** 0.053
28283 H 165.782 108.522 83.3597 H 0 **** 0.053
28284 H 165.663 107.628 84.8932 H 0 **** 0.053
28285 H 165.153 106.384 82.5392 H 0 **** 0.053
28286 H 165.892 105.523 83.8967 H 0 **** 0.053
28287 H 167.009 105.303 81.5038 H 0 **** 0.053
28288 H 168.092 105.582 82.8714 H 0 **** 0.053
28289 H 167.685 95.1211 66.4554 H 0 **** 0.053
28290 H 167.368 95.2359 68.8935 H 0 **** 0.053
28291 H 166.143 96.5153 68.7227 H 0 **** 0.053
28292 H 167.843 96.8491 68.3215 H 0 **** 0.053
28293 H 165.468 94.2153 65.7893 H 0 **** 0.053
28294 H 164.699 95.0398 67.1663 H 0 **** 0.053
28295 H 165.878 93.7366 67.4522 H 0 **** 0.053
28296 H 165.307 105.4 73.3124 H 0 **** 0.41
28297 H 175.015 108.328 82.6183 H 0 **** 0.053
28298 H 175.942 109.757 84.59 H 0 **** 0.053
28299 H 175.528 111.128 86.6951 H 0 **** 0.053
28300 H 175.172 112.475 88.8469 H 0 **** 0.053
28301 H 173.472 113.565 90.5633 H 0 **** 0.053
28302 H 168.567 113.465 91.1946 H 0 **** 0.053
28303 H 171.038 113.945 91.326 H 0 **** 0.053
28304 H 166.026 109.392 85.959 H 0 **** 0.053
28305 H 165.062 111.028 86.6033 H 0 **** 0.053
28306 H 164.819 110.034 88.0524 H 0 **** 0.053
28307 H 163.371 112.05 88.1808 H 0 **** 0.053
28308 H 164.758 113.097 87.863 H 0 **** 0.053
28309 H 164.442 111.256 90.3252 H 0 **** 0.053
28310 H 164.31 113.029 90.3782 H 0 **** 0.053
28311 C 116.684 129.311 38.1505 C.3 0 **** 0.054
28312 C 115.404 130.11 38.5316 C.3 0 **** -0.106
28313 C 114.224 129.153 38.8572 C.3 0 **** -0.053
28314 C 114.257 127.976 37.8526 C.3 0 **** -0.053
28315 C 115.628 127.24 37.9367 C.3 0 **** 0.054
28316 O 116.615 127.982 38.6392 O.3 0 **** -0.32
28317 C 113.963 128.472 36.4059 C.3 0 **** -0.053
28318 C 112.888 129.624 36.3658 C.3 0 **** 0.107
28319 C 112.025 129.591 37.621 C.3 0 **** -0.106
28320 C 112.847 129.863 38.8917 C.3 0 **** -0.106
28321 O 112.002 129.562 35.2432 O.3 0 **** -0.32
28322 C 112.715 129.242 34.059 C.3 0 **** 0.107
28323 C 113.033 127.724 34.1108 C.3 0 **** -0.053
28324 C 113.539 127.29 35.5108 C.3 0 **** -0.106
28325 C 113.956 127.224 33.0291 C.2 0 **** 0
28326 C 115.035 128.199 32.5768 C.3 0 **** 0
28327 C 114.638 129.674 32.5737 C.3 0 **** 0
28328 C 113.891 130.181 33.8011 C.3 0 **** -0.053
28329 C 115.74 130.619 32.1346 C.3 0 **** 0
28330 C 116.299 130.203 30.7783 C.3 0 **** 0
28331 C 116.773 128.704 30.8691 C.3 0 **** 0.16
28332 C 115.657 127.763 31.2658 C.3 0 **** 0
28333 C 116.057 126.263 31.1974 C.3 0 **** -0.106
28334 C 114.732 125.521 31.2878 C.3 0 **** -0.106
28335 C 113.853 126.013 32.432 C.2 0 **** -0.1268
28336 O 117.625 128.158 29.8382 O.3 0 **** -0.32
28337 C 117.879 129.083 28.8031 C.3 0 **** 0.16
28338 C 118.315 130.52 29.2449 C.3 0 **** 0
28339 C 117.463 131.147 30.3769 C.3 0 **** 0
28340 C 113.499 131.619 33.5815 C.2 0 **** 0
28341 C 114.697 132.524 33.5264 C.3 0 **** -0.053
28342 C 115.373 132.112 32.1874 C.3 0 **** 0
28343 C 114.446 134.014 33.4652 C.2 0 **** 0
28344 C 113.203 134.437 33.116 C.2 0 **** 0
28345 C 112.009 133.508 32.9515 C.3 0 **** -0.106
28346 C 112.273 132.057 33.3186 C.2 0 **** -0.1268
28347 C 112.871 135.911 33.0643 C.3 0 **** -0.106
28348 C 114.091 136.684 32.5852 C.3 0 **** -0.106
28349 C 115.311 136.221 33.3612 C.2 0 **** 0
28350 C 115.429 134.918 33.7779 C.2 0 **** 0
28351 C 116.689 134.479 34.4988 C.3 0 **** -0.106
28352 C 117.516 135.633 35.0476 C.3 0 **** -0.053
28353 C 117.741 136.674 33.9374 C.3 0 **** -0.106
28354 C 116.395 137.268 33.5104 C.3 0 **** -0.106
28355 C 116.958 132.593 30.2919 C.3 0 **** 0.147
28356 C 116.511 133.038 31.6767 C.3 0 **** -0.053
28357 C 118.654 131.473 28.0938 C.3 0 **** 0
28358 C 119.052 132.902 28.4844 C.3 0 **** 0.147
28359 S 118.114 133.846 29.6614 S.3 0 **** -0.294
28360 C 119.497 133.771 27.3415 C.3 0 **** -0.053
28361 C 120.622 133.053 26.5834 C.3 0 **** 0
28362 C 120.176 131.626 26.0816 C.3 0 **** 0
28363 C 119.77 130.752 27.286 C.3 0 **** 0
28364 C 121.337 130.985 25.3358 C.3 0 **** 0
28365 C 121.723 131.855 24.1568 C.3 0 **** 0
28366 C 122.135 133.33 24.5717 C.3 0 **** 0
28367 C 120.953 133.986 25.3755 C.3 0 **** -0.053
28368 C 122.376 134.128 23.2595 C.3 0 **** 0
28369 C 123.623 133.557 22.6203 C.3 0 **** 0.16
28370 C 123.519 132.054 22.3451 C.3 0 **** 0
28371 C 122.635 131.171 23.1768 C.3 0 **** 0
28372 C 119.439 129.28 26.9231 C.3 0 **** 0
28373 C 119.056 128.427 28.1277 C.3 0 **** -0.053
28374 C 121.274 129.46 25.0931 C.3 0 **** 0
28375 C 120.165 128.614 25.724 C.3 0 **** 0
28376 C 122.95 129.677 23.2678 C.3 0 **** 0
28377 C 121.701 128.905 23.7314 C.3 0 **** 0
28378 C 124.274 131.423 21.1742 C.3 0 **** 0
28379 C 124.533 129.899 21.3936 C.3 0 **** 0
28380 C 123.304 129.104 21.8711 C.3 0 **** 0
28381 O 123.964 134.364 21.5146 O.3 0 **** -0.32
28382 C 124.754 135.388 22.1176 C.3 0 **** 0.107
28383 C 123.968 136.06 23.2901 C.3 0 **** -0.053
28384 C 122.493 135.671 23.2283 C.3 0 **** 0.107
28385 C 124.134 137.587 23.2477 C.3 0 **** -0.106
28386 C 125.581 137.949 22.8697 C.3 0 **** -0.106
28387 C 125.86 137.588 21.3985 C.3 0 **** 0.134
28388 C 125.093 136.31 20.9649 C.3 0 **** -0.053
28389 C 125.844 135.521 19.8631 C.3 0 **** -0.106
28390 C 126.556 136.491 18.9291 C.3 0 **** -0.106
28391 C 127.582 137.362 19.717 C.3 0 **** 0.081
28392 N 127.283 137.495 21.1417 N.3 0 **** -0.727
28393 C 120.528 127.106 25.7903 C.3 0 **** 0.16
28394 C 120.857 126.617 24.3884 C.3 0 **** 0.16
28395 C 122.068 127.362 23.9051 C.3 0 **** 0
28396 O 121.074 125.226 24.2822 O.3 0 **** -0.32
28397 C 120.012 124.524 24.9203 C.3 0 **** 0.107
28398 C 119.948 124.935 26.3591 C.3 0 **** 0.107
28399 O 119.533 126.291 26.3897 O.3 0 **** -0.32
28400 C 121.3 124.732 27.0904 C.3 0 **** -0.106
28401 C 122.132 123.578 26.4591 C.3 0 **** -0.106
28402 C 121.192 122.501 25.8812 C.3 0 **** -0.106
28403 C 120.305 123.057 24.7309 C.3 0 **** -0.106
28404 C 123.67 127.557 21.9776 C.3 0 **** 0
28405 C 122.415 126.783 22.4943 C.3 0 **** -0.053
28406 C 124.974 129.283 20.0555 C.3 0 **** 0
28407 C 125.228 127.766 20.1612 C.3 0 **** 0.16
28408 C 124.076 126.972 20.6372 C.3 0 **** -0.053
28409 C 126.287 130.056 19.6395 C.3 0 **** 0
28410 C 125.992 131.604 19.481 C.3 0 **** 0
28411 C 125.627 132.127 20.879 C.3 0 **** -0.053
28412 O 125.725 127.153 19.0173 O.3 0 **** -0.32
28413 C 126.791 127.938 18.4931 C.3 0 **** 0.16
28414 C 126.533 129.484 18.247 C.3 0 **** 0
28415 C 127.157 132.443 18.8865 C.3 0 **** -0.053
28416 C 127.683 131.756 17.6277 C.3 0 **** -0.053
28417 C 127.798 130.189 17.7413 C.3 0 **** 0
28418 C 129.09 132.168 17.3603 C.3 0 **** -0.053
28419 C 129.283 133.633 17.6479 C.3 0 **** -0.106
28420 C 129.179 133.849 19.1852 C.3 0 **** -0.106
28421 C 128.313 132.765 19.8586 C.3 0 **** -0.106
28422 C 128.119 129.607 16.3852 C.3 0 **** 0
28423 C 128.214 128.052 16.3862 C.3 0 **** 0
28424 C 127.188 127.272 17.2043 C.3 0 **** 0
28425 C 129.264 131.804 15.888 C.3 0 **** 0
28426 C 129.321 130.271 15.7516 C.3 0 **** 0
28427 C 118.82 135.137 35.7244 C.3 0 **** -0.053
28428 C 119.881 134.666 34.7181 C.3 0 **** -0.159
28429 C 119.41 136.209 36.6495 C.3 0 **** -0.159
28430 O 121.747 136.36 24.2223 O.3 0 **** -0.57
28431 C 126.873 125.775 16.9301 C.3 0 **** -0.053
28432 C 127.86 125.046 16.0148 C.3 0 **** -0.053
28433 C 128.255 125.944 14.8297 C.3 0 **** 0
28434 C 128.889 127.304 15.2512 C.3 0 **** 0
28435 C 129.495 128.232 14.2141 C.3 0 **** 0
28436 C 129.946 127.607 12.9276 C.3 0 **** 0
28437 C 129.785 126.073 12.7813 C.3 0 **** 0
28438 C 129.234 125.189 13.9256 C.3 0 **** -0.053
28439 C 130.452 125.375 11.6044 C.3 0 **** -0.053
28440 C 131.355 126.211 10.6729 C.3 0 **** -0.053
28441 C 131.256 127.766 10.7403 C.3 0 **** 0
28442 C 131.096 128.324 12.1788 C.3 0 **** 0
28443 C 130.877 129.888 12.1827 C.3 0 **** 0
28444 C 130.718 130.414 13.6593 C.3 0 **** 0
28445 C 129.494 129.761 14.3329 C.3 0 **** 0
28446 C 132.094 130.569 11.481 C.3 0 **** 0
28447 C 132.214 130 10.0177 C.3 0 **** -0.053
28448 C 132.412 128.471 10.0078 C.3 0 **** -0.053
28449 C 130.484 132.456 15.2044 C.3 0 **** -0.053
28450 C 130.461 131.974 13.683 C.3 0 **** 0
28451 C 131.875 132.15 11.4482 C.3 0 **** 0.02
28452 C 131.593 132.725 12.8811 C.3 0 **** 0
28453 C 131.463 134.257 13.0515 C.3 0 **** -0.106
28454 C 131.684 134.932 11.7273 C.3 0 **** -0.106
28455 C 132.96 134.409 11.0782 C.3 0 **** -0.086
28456 C 133.02 132.947 10.8293 C.2 0 **** 0.379
28457 O 133.891 132.484 10.1134 O.2 0 **** -0.419
28458 H 117.578 129.766 38.5975 H 0 **** 0.053
28459 H 116.84 129.324 37.0607 H 0 **** 0.053
28460 H 115.578 130.77 39.4036 H 0 **** 0.053
28461 H 115.126 130.792 37.7069 H 0 **** 0.053
28462 H 114.429 128.732 39.8549 H 0 **** 0.053
28463 H 113.441 127.278 38.1186 H 0 **** 0.053
28464 H 115.996 126.968 36.9322 H 0 **** 0.053
28465 H 115.517 126.3 38.489 H 0 **** 0.053
28466 H 114.922 128.852 36.0127 H 0 **** 0.053
28467 H 113.402 130.603 36.3577 H 0 **** 0.053
28468 H 111.544 128.596 37.6703 H 0 **** 0.053
28469 H 111.21 130.323 37.5089 H 0 **** 0.053
28470 H 112.274 129.537 39.7708 H 0 **** 0.053
28471 H 112.992 130.947 38.9999 H 0 **** 0.053
28472 H 112.006 129.362 33.2371 H 0 **** 0.053
28473 H 112.083 127.203 33.9457 H 0 **** 0.053
28474 H 114.356 126.538 35.467 H 0 **** 0.053
28475 H 112.696 126.792 36.0217 H 0 **** 0.053
28476 H 114.603 130.183 34.6407 H 0 **** 0.053
28477 H 116.571 126.051 30.2391 H 0 **** 0.053
28478 H 116.762 125.996 32.0118 H 0 **** 0.053
28479 H 114.895 124.443 31.3609 H 0 **** 0.053
28480 H 114.18 125.708 30.3485 H 0 **** 0.053
28481 H 113.11 125.294 32.7628 H 0 **** 0.1268
28482 H 115.38 132.273 34.3731 H 0 **** 0.053
28483 H 111.62 133.56 31.8911 H 0 **** 0.053
28484 H 111.17 133.879 33.6058 H 0 **** 0.053
28485 H 111.41 131.398 33.3235 H 0 **** 0.1268
28486 H 111.986 136.108 32.4215 H 0 **** 0.053
28487 H 112.601 136.225 34.0885 H 0 **** 0.053
28488 H 113.937 137.777 32.6875 H 0 **** 0.053
28489 H 114.261 136.487 31.5094 H 0 **** 0.053
28490 H 116.403 133.833 35.3417 H 0 **** 0.053
28491 H 117.323 133.857 33.8378 H 0 **** 0.053
28492 H 116.909 136.117 35.8399 H 0 **** 0.053
28493 H 118.22 136.187 33.0727 H 0 **** 0.053
28494 H 118.416 137.478 34.2625 H 0 **** 0.053
28495 H 116.517 137.842 32.5625 H 0 **** 0.053
28496 H 116.062 138.002 34.2787 H 0 **** 0.053
28497 H 116.204 134.139 31.6312 H 0 **** 0.053
28498 H 119.789 134.83 27.6142 H 0 **** 0.053
28499 H 121.321 134.958 25.8356 H 0 **** 0.053
28500 H 118.754 127.368 27.8761 H 0 **** 0.053
28501 H 125.682 134.932 22.4995 H 0 **** 0.053
28502 H 124.396 135.726 24.2577 H 0 **** 0.053
28503 H 122.114 135.942 22.2526 H 0 **** 0.053
28504 H 123.438 138.014 22.4928 H 0 **** 0.053
28505 H 123.839 138.029 24.227 H 0 **** 0.053
28506 H 126.248 137.377 23.5353 H 0 **** 0.053
28507 H 125.795 139.015 23.046 H 0 **** 0.053
28508 H 125.471 138.417 20.7853 H 0 **** 0.053
28509 H 124.112 136.62 20.5512 H 0 **** 0.053
28510 H 126.613 134.904 20.3499 H 0 **** 0.053
28511 H 125.156 134.843 19.3282 H 0 **** 0.053
28512 H 125.785 137.128 18.4605 H 0 **** 0.053
28513 H 127.052 135.959 18.0991 H 0 **** 0.053
28514 H 127.618 138.371 19.2767 H 0 **** 0.053
28515 H 128.6 136.95 19.6019 H 0 **** 0.053
28516 H 127.652 136.715 21.6479 H 0 **** 0.353
28517 H 119.083 124.821 24.4339 H 0 **** 0.053
28518 H 119.192 124.347 26.8722 H 0 **** 0.053
28519 H 121.922 125.652 27.0774 H 0 **** 0.053
28520 H 121.141 124.524 28.1697 H 0 **** 0.053
28521 H 122.83 123.143 27.2031 H 0 **** 0.053
28522 H 122.77 123.98 25.6465 H 0 **** 0.053
28523 H 120.534 122.16 26.6993 H 0 **** 0.053
28524 H 121.763 121.62 25.5359 H 0 **** 0.053
28525 H 119.39 122.446 24.6213 H 0 **** 0.053
28526 H 120.861 122.966 23.7692 H 0 **** 0.053
28527 H 122.684 125.673 22.5666 H 0 **** 0.053
28528 H 124.254 125.879 20.7172 H 0 **** 0.053
28529 H 125.503 133.243 20.7914 H 0 **** 0.053
28530 H 126.692 133.379 18.6111 H 0 **** 0.053
28531 H 127.005 132.011 16.7892 H 0 **** 0.053
28532 H 129.818 131.592 17.9702 H 0 **** 0.053
28533 H 128.493 134.202 17.121 H 0 **** 0.053
28534 H 130.256 134.04 17.2964 H 0 **** 0.053
28535 H 128.739 134.844 19.394 H 0 **** 0.053
28536 H 130.193 133.864 19.629 H 0 **** 0.053
28537 H 127.959 133.119 20.8434 H 0 **** 0.053
28538 H 128.897 131.854 20.044 H 0 **** 0.053
28539 H 118.551 134.272 36.3595 H 0 **** 0.053
28540 H 120.741 134.215 35.2379 H 0 **** 0.053
28541 H 120.257 135.513 34.1206 H 0 **** 0.053
28542 H 119.487 133.913 34.0168 H 0 **** 0.053
28543 H 118.682 136.518 37.416 H 0 **** 0.053
28544 H 119.7 137.105 36.0798 H 0 **** 0.053
28545 H 120.305 135.835 37.17 H 0 **** 0.053
28546 H 120.845 136.063 24.1186 H 0 **** 0.41
28547 H 126.43 125.194 17.7872 H 0 **** 0.053
28548 H 127.46 124.047 15.688 H 0 **** 0.053
28549 H 128.849 124.199 13.5605 H 0 **** 0.053
28550 H 130.274 124.284 11.4299 H 0 **** 0.053
28551 H 131.648 125.745 9.70196 H 0 **** 0.053
28552 H 133.036 130.488 9.42981 H 0 **** 0.053
28553 H 132.561 128.052 8.98632 H 0 **** 0.053
28554 H 130.426 133.603 15.2563 H 0 **** 0.053
28555 H 130.485 134.535 13.4823 H 0 **** 0.053
28556 H 132.233 134.503 13.781 H 0 **** 0.053
28557 H 131.749 136.01 11.8648 H 0 **** 0.053
28558 H 130.81 134.742 11.0718 H 0 **** 0.053
28559 H 133.828 134.585 11.7194 H 0 **** 0.053
28560 H 133.166 134.794 10.0819 H 0 **** 0.053
28561 C 31.214 80.8222 175.442 C.2 0 **** 0
28562 C 30.5727 79.6304 175.143 C.2 0 **** 0
28563 C 29.6876 79.5686 174.079 C.2 0 **** 0
28564 C 29.4686 80.6933 173.322 C.2 0 **** 0
28565 C 30.1499 81.8762 173.583 C.2 0 **** 0
28566 C 31.0327 81.9353 174.641 C.2 0 **** 0
28567 C 28.489 80.6634 172.166 C.3 0 **** -0.106
28568 C 27.6329 79.4203 171.966 C.2 0 **** 0
28569 C 27.8441 78.2969 172.715 C.2 0 **** 0
28570 C 28.9624 78.2652 173.755 C.3 0 **** -0.106
28571 C 27.0244 77.1793 172.528 C.2 0 **** 0
28572 C 25.9571 77.2134 171.652 C.2 0 **** 0
28573 C 25.8061 78.3158 170.819 C.2 0 **** 0
28574 C 26.6296 79.4363 170.981 C.2 0 **** 0
28575 C 26.4418 80.5587 170.189 C.2 0 **** -0.1268
28576 C 25.3919 80.7239 169.31 C.2 0 **** 0
28577 C 24.4794 79.6105 169.278 C.2 0 **** 0
28578 C 24.8234 78.3766 169.836 C.2 0 **** 0.042
28579 C 23.2114 79.6898 168.404 C.3 0 **** 0
28580 C 22.9896 80.9456 167.557 C.3 0 **** 0
28581 C 24.1346 81.9762 167.49 C.2 0 **** 0
28582 C 25.2638 81.8695 168.367 C.2 0 **** 0
28583 C 21.5077 81.3308 167.362 C.3 0 **** -0.106
28584 C 20.7238 81.2792 168.677 C.3 0 **** -0.053
28585 C 20.7283 79.8479 169.295 C.3 0 **** -0.053
28586 C 21.9023 78.964 168.798 C.3 0 **** -0.106
28587 C 26.2897 82.8154 168.17 C.2 0 **** 0.042
28588 C 26.1775 83.792 167.204 C.2 0 **** 0.052
28589 C 25.0809 83.8456 166.357 C.2 0 **** 0.052
28590 C 24.0955 82.9002 166.462 C.2 0 **** 0.042
28591 C 24.9368 84.8954 165.286 C.2 0 **** 0.367
28592 C 26.043 85.8922 165.18 C.2 0 **** 0
28593 C 27.1117 85.8376 165.984 C.2 0 **** 0
28594 C 27.2737 84.8143 167.045 C.2 0 **** 0.367
28595 C 28.2221 86.858 165.878 C.3 0 **** -0.106
28596 C 27.6109 88.2333 165.511 C.3 0 **** -0.106
28597 C 26.7233 88.1241 164.271 C.2 0 **** 0
28598 C 25.9307 86.9647 164.111 C.2 0 **** 0.2405
28599 N 25.1022 86.8043 163.058 N.2 0 **** -0.481
28600 C 24.9721 87.8155 162.205 C.2 0 **** 0.2405
28601 C 25.7584 88.9877 162.294 C.2 0 **** 0
28602 C 26.6447 89.1231 163.332 C.2 0 **** 0
28603 C 27.5002 90.3741 163.49 C.3 0 **** -0.106
28604 C 27.5531 91.2236 162.214 C.3 0 **** -0.106
28605 C 26.1579 91.3796 161.618 C.3 0 **** -0.106
28606 C 25.6226 90.0016 161.185 C.3 0 **** -0.053
28607 C 24.1426 90.0887 160.727 C.3 0 **** -0.106
28608 C 23.6262 88.7112 160.407 C.2 0 **** 0
28609 C 24.0322 87.6106 161.164 C.2 0 **** 0
28610 C 23.4998 86.3413 160.875 C.2 0 **** -0.1268
28611 C 22.5633 86.2059 159.869 C.2 0 **** -0.1268
28612 C 22.1242 87.2989 159.142 C.2 0 **** 0
28613 C 22.6483 88.559 159.429 C.2 0 **** 0
28614 C 31.8182 83.1942 174.906 C.3 0 **** -0.106
28615 C 31.0012 84.1917 175.754 C.3 0 **** -0.159
28616 C 32.1138 80.893 176.649 C.3 0 **** -0.159
28617 C 29.8672 83.0654 172.694 C.3 0 **** -0.159
28618 C 30.828 78.3994 175.978 C.3 0 **** -0.159
28619 C 27.3225 75.9367 173.367 C.3 0 **** -0.159
28620 C 25.0118 76.0355 171.673 C.3 0 **** -0.159
28621 O 24.1243 77.2646 169.46 O.3 0 **** -0.452
28622 C 19.4627 79.042 168.994 C.3 0 **** -0.159
28623 C 19.3197 81.8328 168.406 C.3 0 **** -0.159
28624 O 23.0417 82.8246 165.592 O.3 0 **** -0.452
28625 O 27.4158 82.7717 168.926 O.3 0 **** -0.452
28626 O 28.2395 84.7987 167.738 O.2 0 **** -0.419
28627 O 23.9607 84.9416 164.596 O.2 0 **** -0.419
28628 C 22.138 89.7693 158.665 C.3 0 **** -0.159
28629 C 21.0715 87.0763 158.075 C.3 0 **** -0.159
28630 H 27.7946 81.5247 172.303 H 0 **** 0.053
28631 H 29.0548 80.8565 171.222 H 0 **** 0.053
28632 H 29.7264 77.5204 173.425 H 0 **** 0.053
28633 H 28.531 77.8737 174.702 H 0 **** 0.053
28634 H 27.1585 81.3338 170.342 H 0 **** 0.1268
28635 H 21.4077 82.3316 166.937 H 0 **** 0.053
28636 H 21.0988 80.6137 166.646 H 0 **** 0.053
28637 H 21.2201 81.9604 169.391 H 0 **** 0.053
28638 H 20.8183 79.9628 170.383 H 0 **** 0.053
28639 H 21.6016 78.4592 167.875 H 0 **** 0.053
28640 H 22.0869 78.1891 169.551 H 0 **** 0.053
28641 H 28.8001 86.9579 166.815 H 0 **** 0.053
28642 H 28.9318 86.5268 165.101 H 0 **** 0.053
28643 H 28.448 88.9423 165.39 H 0 **** 0.053
28644 H 27.024 88.605 166.378 H 0 **** 0.053
28645 H 27.0951 90.993 164.313 H 0 **** 0.053
28646 H 28.5394 90.1216 163.767 H 0 **** 0.053
28647 H 28.2092 90.7367 161.467 H 0 **** 0.053
28648 H 28.0022 92.2118 162.425 H 0 **** 0.053
28649 H 26.166 92.0685 160.752 H 0 **** 0.053
28650 H 25.4789 91.821 162.37 H 0 **** 0.053
28651 H 26.2329 89.6644 160.312 H 0 **** 0.053
28652 H 23.5367 90.5442 161.543 H 0 **** 0.053
28653 H 24.0835 90.7889 159.866 H 0 **** 0.053
28654 H 23.8131 85.4567 161.444 H 0 **** 0.1268
28655 H 22.1474 85.2088 159.651 H 0 **** 0.1268
28656 H 32.1388 83.6911 173.97 H 0 **** 0.053
28657 H 32.7731 82.989 175.422 H 0 **** 0.053
28658 H 30.7096 83.7457 176.72 H 0 **** 0.053
28659 H 30.0808 84.5031 175.234 H 0 **** 0.053
28660 H 31.5805 85.1102 175.977 H 0 **** 0.053
28661 H 31.8033 80.2045 177.459 H 0 **** 0.053
28662 H 32.1154 81.8918 177.126 H 0 **** 0.053
28663 H 33.1691 80.6478 176.397 H 0 **** 0.053
28664 H 28.7999 83.3762 172.754 H 0 **** 0.053
28665 H 30.0806 82.8432 171.626 H 0 **** 0.053
28666 H 30.4437 83.9718 172.931 H 0 **** 0.053
28667 H 30.6455 77.4514 175.436 H 0 **** 0.053
28668 H 30.1843 78.3784 176.885 H 0 **** 0.053
28669 H 31.8792 78.3296 176.317 H 0 **** 0.053
28670 H 27.0747 74.9992 172.839 H 0 **** 0.053
28671 H 26.7615 75.941 174.33 H 0 **** 0.053
28672 H 28.4006 75.8261 173.624 H 0 **** 0.053
28673 H 23.9469 76.3527 171.614 H 0 **** 0.053
28674 H 25.036 75.4289 172.619 H 0 **** 0.053
28675 H 25.1893 75.311 170.836 H 0 **** 0.053
28676 H 23.686 77.4341 168.622 H 0 **** 0.41
28677 H 18.571 79.5057 169.437 H 0 **** 0.053
28678 H 19.5451 78.0212 169.414 H 0 **** 0.053
28679 H 19.3019 78.9362 167.903 H 0 **** 0.053
28680 H 19.3749 82.8757 168.041 H 0 **** 0.053
28681 H 18.7066 81.8349 169.32 H 0 **** 0.053
28682 H 18.7934 81.2452 167.628 H 0 **** 0.053
28683 H 23.0704 83.6012 165.013 H 0 **** 0.41
28684 H 28.0007 83.5076 168.694 H 0 **** 0.41
28685 H 21.8457 90.5871 159.35 H 0 **** 0.053
28686 H 21.2395 89.5612 158.054 H 0 **** 0.053
28687 H 22.9043 90.1687 157.969 H 0 **** 0.053
28688 H 20.1332 87.6141 158.303 H 0 **** 0.053
28689 H 20.8028 86.0103 157.972 H 0 **** 0.053
28690 H 21.4166 87.4107 157.081 H 0 **** 0.053
28691 C 33.5467 72.662 186.294 C.2 0 **** 0
28692 C 34.8387 72.1601 186.272 C.2 0 **** 0
28693 C 35.9164 73.0137 186.446 C.2 0 **** 0
28694 C 35.686 74.3512 186.653 C.2 0 **** 0
28695 C 34.392 74.852 186.731 C.2 0 **** 0
28696 C 33.3202 74.0004 186.561 C.2 0 **** 0
28697 C 36.8445 75.3132 186.823 C.3 0 **** -0.106
28698 C 38.2599 74.801 186.594 C.2 0 **** 0
28699 C 38.4974 73.4709 186.386 C.2 0 **** 0
28700 C 37.3426 72.4717 186.403 C.3 0 **** -0.106
28701 C 39.8044 73.0326 186.151 C.2 0 **** 0
28702 C 40.8514 73.9272 186.05 C.2 0 **** 0
28703 C 40.6271 75.2632 186.361 C.2 0 **** 0
28704 C 39.3271 75.7155 186.617 C.2 0 **** 0
28705 C 39.0943 77.0586 186.871 C.2 0 **** -0.1268
28706 C 40.0495 78.0481 186.763 C.2 0 **** 0
28707 C 41.3424 77.5655 186.353 C.2 0 **** 0
28708 C 41.6528 76.2036 186.39 C.2 0 **** 0.042
28709 C 42.4861 78.5695 186.106 C.3 0 **** 0
28710 C 42.2164 80.0555 186.355 C.3 0 **** 0
28711 C 40.8732 80.4401 187.007 C.2 0 **** 0
28712 C 39.8324 79.4665 187.162 C.2 0 **** 0
28713 C 42.9977 81.0107 185.428 C.3 0 **** -0.106
28714 C 42.9326 80.5677 183.963 C.3 0 **** -0.053
28715 C 43.5537 79.1524 183.76 C.3 0 **** -0.053
28716 C 43.5937 78.3039 185.058 C.3 0 **** -0.106
28717 C 38.6766 79.9011 187.841 C.2 0 **** 0.042
28718 C 38.5668 81.1981 188.295 C.2 0 **** 0.052
28719 C 39.6074 82.1032 188.151 C.2 0 **** 0.052
28720 C 40.7789 81.7024 187.565 C.2 0 **** 0.042
28721 C 39.519 83.5227 188.647 C.2 0 **** 0.367
28722 C 38.2393 83.9168 189.307 C.2 0 **** 0
28723 C 37.2365 83.0448 189.463 C.2 0 **** 0
28724 C 37.3008 81.6436 188.982 C.2 0 **** 0.367
28725 C 35.9392 83.4552 190.122 C.3 0 **** -0.106
28726 C 35.6235 84.924 189.743 C.3 0 **** -0.106
28727 C 36.8119 85.8357 190.049 C.2 0 **** 0
28728 C 38.1157 85.3406 189.819 C.2 0 **** 0.2405
28729 N 39.2151 86.0921 190.04 N.2 0 **** -0.481
28730 C 39.0437 87.3612 190.396 C.2 0 **** 0.2405
28731 C 37.7678 87.9062 190.67 C.2 0 **** 0
28732 C 36.6543 87.1217 190.503 C.2 0 **** 0
28733 C 35.2538 87.6635 190.761 C.3 0 **** -0.106
28734 C 35.2595 88.9662 191.571 C.3 0 **** -0.106
28735 C 36.3108 89.9279 191.027 C.3 0 **** -0.106
28736 C 37.7135 89.3159 191.204 C.3 0 **** -0.053
28737 C 38.7997 90.1836 190.515 C.3 0 **** -0.106
28738 C 40.1391 89.5048 190.625 C.2 0 **** 0
28739 C 40.236 88.1145 190.54 C.2 0 **** 0
28740 C 41.503 87.507 190.598 C.2 0 **** -0.1268
28741 C 42.6335 88.2934 190.708 C.2 0 **** -0.1268
28742 C 42.5487 89.674 190.749 C.2 0 **** 0
28743 C 41.2934 90.2787 190.689 C.2 0 **** 0
28744 C 31.9105 74.5171 186.695 C.3 0 **** -0.106
28745 C 31.4148 75.1301 185.368 C.3 0 **** -0.159
28746 C 32.39 71.7341 186.027 C.3 0 **** -0.159
28747 C 34.221 76.3329 186.98 C.3 0 **** -0.159
28748 C 35.0778 70.6865 186.051 C.3 0 **** -0.159
28749 C 40.022 71.5317 185.958 C.3 0 **** -0.159
28750 C 42.1819 73.3794 185.591 C.3 0 **** -0.159
28751 O 42.9655 75.8243 186.366 O.3 0 **** -0.452
28752 C 44.9966 79.1791 183.252 C.3 0 **** -0.159
28753 C 43.5924 81.6609 183.114 C.3 0 **** -0.159
28754 O 41.8848 82.5054 187.489 O.3 0 **** -0.452
28755 O 37.6537 79.0402 188.071 O.3 0 **** -0.452
28756 O 36.3882 80.8991 189.138 O.2 0 **** -0.419
28757 O 40.4179 84.2931 188.473 O.2 0 **** -0.419
28758 C 41.1964 91.7952 190.689 C.3 0 **** -0.159
28759 C 43.8349 90.4707 190.838 C.3 0 **** -0.159
28760 H 36.6783 76.1557 186.112 H 0 **** 0.053
28761 H 36.7907 75.7482 187.851 H 0 **** 0.053
28762 H 37.4787 71.7946 187.281 H 0 **** 0.053
28763 H 37.4351 71.8335 185.497 H 0 **** 0.053
28764 H 38.0839 77.2943 187.119 H 0 **** 0.1268
28765 H 42.6209 82.0327 185.499 H 0 **** 0.053
28766 H 44.0306 81.0017 185.783 H 0 **** 0.053
28767 H 41.8673 80.5165 183.674 H 0 **** 0.053
28768 H 42.9337 78.6261 183.022 H 0 **** 0.053
28769 H 44.5176 78.5246 185.6 H 0 **** 0.053
28770 H 43.626 77.2458 184.772 H 0 **** 0.053
28771 H 35.089 82.8141 189.826 H 0 **** 0.053
28772 H 36.0504 83.3498 191.215 H 0 **** 0.053
28773 H 34.7018 85.2093 190.279 H 0 **** 0.053
28774 H 35.369 84.9656 188.663 H 0 **** 0.053
28775 H 34.7481 87.8469 189.794 H 0 **** 0.053
28776 H 34.6316 86.9321 191.308 H 0 **** 0.053
28777 H 35.4885 88.7466 192.631 H 0 **** 0.053
28778 H 34.2571 89.4332 191.559 H 0 **** 0.053
28779 H 36.2614 90.9079 191.539 H 0 **** 0.053
28780 H 36.1226 90.1183 189.955 H 0 **** 0.053
28781 H 37.9345 89.2948 192.299 H 0 **** 0.053
28782 H 38.5274 90.3229 189.444 H 0 **** 0.053
28783 H 38.7833 91.1951 190.976 H 0 **** 0.053
28784 H 41.6071 86.4158 190.55 H 0 **** 0.1268
28785 H 43.6232 87.8103 190.749 H 0 **** 0.1268
28786 H 31.8168 75.271 187.5 H 0 **** 0.053
28787 H 31.2045 73.7269 187.006 H 0 **** 0.053
28788 H 31.4455 74.3885 184.553 H 0 **** 0.053
28789 H 32.0344 75.9903 185.066 H 0 **** 0.053
28790 H 30.3694 75.4893 185.448 H 0 **** 0.053
28791 H 32.6553 70.8984 185.351 H 0 **** 0.053
28792 H 31.5442 72.2369 185.521 H 0 **** 0.053
28793 H 31.9917 71.2842 186.963 H 0 **** 0.053
28794 H 34.6718 76.9393 186.163 H 0 **** 0.053
28795 H 34.7075 76.6519 187.927 H 0 **** 0.053
28796 H 33.1783 76.6762 187.05 H 0 **** 0.053
28797 H 36.0354 70.3254 186.474 H 0 **** 0.053
28798 H 35.0887 70.4306 184.969 H 0 **** 0.053
28799 H 34.3051 70.0566 186.532 H 0 **** 0.053
28800 H 41.0079 71.1959 186.325 H 0 **** 0.053
28801 H 39.9401 71.2342 184.887 H 0 **** 0.053
28802 H 39.2951 70.9042 186.522 H 0 **** 0.053
28803 H 42.6813 74.053 184.859 H 0 **** 0.053
28804 H 42.1231 72.407 185.03 H 0 **** 0.053
28805 H 42.9036 73.2087 186.432 H 0 **** 0.053
28806 H 43.5145 76.5568 186.658 H 0 **** 0.41
28807 H 45.0677 79.6313 182.254 H 0 **** 0.053
28808 H 45.399 78.1511 183.177 H 0 **** 0.053
28809 H 45.6564 79.7402 183.943 H 0 **** 0.053
28810 H 43.0644 82.6247 183.241 H 0 **** 0.053
28811 H 43.5666 81.4075 182.044 H 0 **** 0.053
28812 H 44.6463 81.828 183.414 H 0 **** 0.053
28813 H 41.6371 83.3916 187.793 H 0 **** 0.41
28814 H 36.9225 79.4996 188.51 H 0 **** 0.41
28815 H 40.5563 92.1605 189.864 H 0 **** 0.053
28816 H 42.1708 92.302 190.553 H 0 **** 0.053
28817 H 40.7742 92.1793 191.641 H 0 **** 0.053
28818 H 43.9848 91.1105 189.949 H 0 **** 0.053
28819 H 44.7234 89.8188 190.906 H 0 **** 0.053
28820 H 43.8538 91.1226 191.728 H 0 **** 0.053
28821 C 42.3718 23.2203 152.258 C.2 0 **** 0
28822 C 42.2268 23.9306 153.439 C.2 0 **** 0
28823 C 41.3692 23.4675 154.424 C.2 0 **** 0
28824 C 40.6831 22.2959 154.22 C.2 0 **** 0
28825 C 40.8666 21.5503 153.062 C.2 0 **** 0
28826 C 41.7222 22.0114 152.083 C.2 0 **** 0
28827 C 39.721 21.7758 155.269 C.3 0 **** -0.106
28828 C 39.4035 22.6556 156.471 C.2 0 **** 0
28829 C 40.0815 23.8241 156.681 C.2 0 **** 0
28830 C 41.1883 24.2541 155.72 C.3 0 **** -0.106
28831 C 39.7502 24.6256 157.778 C.2 0 **** 0
28832 C 38.7004 24.297 158.613 C.2 0 **** 0
28833 C 38.0802 23.0623 158.46 C.2 0 **** 0
28834 C 38.4125 22.2395 157.377 C.2 0 **** 0
28835 C 37.7542 21.0333 157.191 C.2 0 **** -0.1268
28836 C 36.6694 20.6164 157.935 C.2 0 **** 0
28837 C 36.2608 21.5572 158.945 C.2 0 **** 0
28838 C 37.0907 22.6133 159.33 C.2 0 **** 0.042
28839 C 35.0087 21.2645 159.796 C.3 0 **** 0
28840 C 34.2636 19.9475 159.564 C.3 0 **** 0
28841 C 34.9115 18.9141 158.621 C.2 0 **** 0
28842 C 36.0467 19.2686 157.821 C.2 0 **** 0
28843 C 32.7394 20.0272 159.795 C.3 0 **** -0.106
28844 C 32.1218 21.2578 159.123 C.3 0 **** -0.053
28845 C 32.721 22.583 159.685 C.3 0 **** -0.053
28846 C 34.1124 22.3998 160.347 C.3 0 **** -0.106
28847 C 36.6101 18.2288 157.054 C.2 0 **** 0.042
28848 C 36.0661 16.9621 157.068 C.2 0 **** 0.052
28849 C 34.9838 16.6517 157.878 C.2 0 **** 0.052
28850 C 34.4518 17.6117 158.697 C.2 0 **** 0.042
28851 C 34.3763 15.2742 157.922 C.2 0 **** 0.367
28852 C 34.9994 14.2451 157.038 C.2 0 **** 0
28853 C 36.0535 14.5331 156.266 C.2 0 **** 0
28854 C 36.6671 15.8819 156.205 C.2 0 **** 0.367
28855 C 36.6715 13.4883 155.365 C.3 0 **** -0.106
28856 C 35.5519 12.5673 154.819 C.3 0 **** -0.106
28857 C 34.6999 12.0063 155.957 C.2 0 **** 0
28858 C 34.412 12.8453 157.058 C.2 0 **** 0.2405
28859 N 33.6447 12.4339 158.089 N.2 0 **** -0.481
28860 C 33.0793 11.2337 158.008 C.2 0 **** 0.2405
28861 C 33.3524 10.337 156.949 C.2 0 **** 0
28862 C 34.1802 10.7362 155.93 C.2 0 **** 0
28863 C 34.4906 9.82017 154.752 C.3 0 **** -0.106
28864 C 34.1284 8.35527 155.026 C.3 0 **** -0.106
28865 C 32.7475 8.2572 155.666 C.3 0 **** -0.106
28866 C 32.7634 8.95133 157.041 C.3 0 **** -0.053
28867 C 31.3401 9.0223 157.655 C.3 0 **** -0.106
28868 C 31.3802 9.79244 158.948 C.2 0 **** 0
28869 C 32.2289 10.8918 159.089 C.2 0 **** 0
28870 C 32.2143 11.6237 160.29 C.2 0 **** -0.1268
28871 C 31.3423 11.2635 161.3 C.2 0 **** -0.1268
28872 C 30.468 10.2013 161.15 C.2 0 **** 0
28873 C 30.4785 9.47628 159.959 C.2 0 **** 0
28874 C 41.9724 21.1901 150.843 C.3 0 **** -0.106
28875 C 40.8876 21.4482 149.776 C.3 0 **** -0.159
28876 C 43.2486 23.7762 151.166 C.3 0 **** -0.159
28877 C 40.0889 20.2621 152.919 C.3 0 **** -0.159
28878 C 42.9937 25.2128 153.654 C.3 0 **** -0.159
28879 C 40.5607 25.9049 157.988 C.3 0 **** -0.159
28880 C 38.2916 25.3254 159.64 C.3 0 **** -0.159
28881 O 36.8548 23.2396 160.521 O.3 0 **** -0.452
28882 C 31.8522 23.2491 160.754 C.3 0 **** -0.159
28883 C 30.5991 21.1559 159.27 C.3 0 **** -0.159
28884 O 33.4572 17.3501 159.601 O.3 0 **** -0.452
28885 O 37.7111 18.4574 156.295 O.3 0 **** -0.452
28886 O 37.6022 16.0996 155.506 O.2 0 **** -0.419
28887 O 33.4167 15.0457 158.599 O.2 0 **** -0.419
28888 C 29.4908 8.33685 159.772 C.3 0 **** -0.159
28889 C 29.5192 9.88601 162.289 C.3 0 **** -0.159
28890 H 38.7571 21.5615 154.752 H 0 **** 0.053
28891 H 40.1067 20.7958 155.643 H 0 **** 0.053
28892 H 42.159 24.2343 156.272 H 0 **** 0.053
28893 H 41.0047 25.3169 155.448 H 0 **** 0.053
28894 H 38.122 20.4484 156.379 H 0 **** 0.1268
28895 H 32.232 19.1362 159.421 H 0 **** 0.053
28896 H 32.5978 20.0726 160.877 H 0 **** 0.053
28897 H 32.3595 21.2073 158.046 H 0 **** 0.053
28898 H 32.8288 23.2768 158.841 H 0 **** 0.053
28899 H 33.9752 22.1312 161.398 H 0 **** 0.053
28900 H 34.6312 23.3657 160.32 H 0 **** 0.053
28901 H 37.2239 13.93 154.516 H 0 **** 0.053
28902 H 37.4034 12.906 155.951 H 0 **** 0.053
28903 H 36.0388 11.7868 154.209 H 0 **** 0.053
28904 H 34.9233 13.1519 154.113 H 0 **** 0.053
28905 H 33.9304 10.1654 153.862 H 0 **** 0.053
28906 H 35.5617 9.85562 154.483 H 0 **** 0.053
28907 H 34.8735 7.90762 155.711 H 0 **** 0.053
28908 H 34.1708 7.76504 154.092 H 0 **** 0.053
28909 H 32.4327 7.20248 155.781 H 0 **** 0.053
28910 H 31.9995 8.74359 155.014 H 0 **** 0.053
28911 H 33.4002 8.3337 157.721 H 0 **** 0.053
28912 H 30.6578 9.52414 156.932 H 0 **** 0.053
28913 H 30.9593 7.98479 157.776 H 0 **** 0.053
28914 H 32.8823 12.4821 160.434 H 0 **** 0.1268
28915 H 31.3332 11.8435 162.237 H 0 **** 0.1268
28916 H 42.0154 20.1053 151.063 H 0 **** 0.053
28917 H 42.9627 21.3963 150.4 H 0 **** 0.053
28918 H 40.8537 22.5138 149.495 H 0 **** 0.053
28919 H 39.8871 21.1636 150.141 H 0 **** 0.053
28920 H 41.0772 20.8688 148.85 H 0 **** 0.053
28921 H 43.2845 24.8833 151.162 H 0 **** 0.053
28922 H 42.8938 23.5111 150.152 H 0 **** 0.053
28923 H 44.2976 23.4168 151.253 H 0 **** 0.053
28924 H 38.9909 20.4453 152.924 H 0 **** 0.053
28925 H 40.3041 19.5553 153.75 H 0 **** 0.053
28926 H 40.2822 19.7016 151.993 H 0 **** 0.053
28927 H 43.1604 25.4556 154.722 H 0 **** 0.053
28928 H 42.4681 26.0849 153.206 H 0 **** 0.053
28929 H 44.0085 25.1771 153.214 H 0 **** 0.053
28930 H 40.664 26.1711 159.054 H 0 **** 0.053
28931 H 40.1051 26.7767 157.465 H 0 **** 0.053
28932 H 41.6112 25.8266 157.626 H 0 **** 0.053
28933 H 37.1859 25.4176 159.723 H 0 **** 0.053
28934 H 38.6102 26.3778 159.407 H 0 **** 0.053
28935 H 38.6837 25.105 160.667 H 0 **** 0.053
28936 H 36.3467 22.6603 161.095 H 0 **** 0.41
28937 H 30.8819 23.5648 160.349 H 0 **** 0.053
28938 H 32.3518 24.1533 161.151 H 0 **** 0.053
28939 H 31.6755 22.5697 161.611 H 0 **** 0.053
28940 H 30.2219 20.2341 158.789 H 0 **** 0.053
28941 H 30.0936 22.0089 158.793 H 0 **** 0.053
28942 H 30.295 21.1128 160.334 H 0 **** 0.053
28943 H 33.1466 16.444 159.455 H 0 **** 0.41
28944 H 37.9488 17.658 155.802 H 0 **** 0.41
28945 H 28.9477 8.4245 158.813 H 0 **** 0.053
28946 H 28.7068 8.29674 160.552 H 0 **** 0.053
28947 H 29.9959 7.34882 159.786 H 0 **** 0.053
28948 H 28.4622 10.0127 161.992 H 0 **** 0.053
28949 H 29.6796 10.5467 163.159 H 0 **** 0.053
28950 H 29.6435 8.85128 162.654 H 0 **** 0.053
28951 C 38.2868 5.60198 134.765 C.2 0 **** 0
28952 C 37.5276 5.19105 135.849 C.2 0 **** 0
28953 C 36.3706 4.45608 135.646 C.2 0 **** 0
28954 C 35.9988 4.13109 134.365 C.2 0 **** 0
28955 C 36.7846 4.49208 133.277 C.2 0 **** 0
28956 C 37.9375 5.22155 133.481 C.2 0 **** 0
28957 C 34.7268 3.34804 134.109 C.3 0 **** -0.106
28958 C 33.7882 3.07647 135.277 C.2 0 **** 0
28959 C 34.1507 3.39781 136.556 C.2 0 **** 0
28960 C 35.5188 4.01669 136.834 C.3 0 **** -0.106
28961 C 33.2577 3.16118 137.606 C.2 0 **** 0
28962 C 31.9862 2.67812 137.368 C.2 0 **** 0
28963 C 31.6555 2.25734 136.085 C.2 0 **** 0
28964 C 32.5455 2.47024 135.025 C.2 0 **** 0
28965 C 32.1934 2.10232 133.735 C.2 0 **** -0.1268
28966 C 30.9441 1.64565 133.37 C.2 0 **** 0
28967 C 30.0072 1.58046 134.461 C.2 0 **** 0
28968 C 30.4347 1.65782 135.789 C.2 0 **** 0.042
28969 C 28.5469 1.1707 134.186 C.3 0 **** 0
28970 C 28.1527 0.795075 132.755 C.3 0 **** 0
28971 C 29.279 0.68259 131.708 C.2 0 **** 0
28972 C 30.6064 1.12942 132.014 C.2 0 **** 0
28973 C 26.6998 1.15295 132.379 C.3 0 **** -0.106
28974 C 26.3324 2.57378 132.815 C.3 0 **** -0.053
28975 C 26.4385 2.753 134.359 C.3 0 **** -0.053
28976 C 27.3727 1.71546 135.035 C.3 0 **** -0.106
28977 C 31.5776 0.905725 131.018 C.2 0 **** 0.042
28978 C 31.2393 0.318076 129.817 C.2 0 **** 0.052
28979 C 29.9489 -0.125541 129.57 C.2 0 **** 0.052
28980 C 28.9906 0.00055585 130.54 C.2 0 **** 0.042
28981 C 29.5545 -0.78199 128.272 C.2 0 **** 0.367
28982 C 30.6309 -0.930999 127.249 C.2 0 **** 0
28983 C 31.882 -0.519289 127.487 C.2 0 **** 0
28984 C 32.2926 0.13004 128.755 C.2 0 **** 0.367
28985 C 32.9641 -0.663578 126.441 C.3 0 **** -0.106
28986 C 32.3421 -0.450231 125.039 C.3 0 **** -0.106
28987 C 31.1299 -1.35939 124.834 C.2 0 **** 0
28988 C 30.2682 -1.58888 125.93 C.2 0 **** 0.2405
28989 N 29.1619 -2.35544 125.823 N.2 0 **** -0.481
28990 C 28.8434 -2.82754 124.622 C.2 0 **** 0.2405
28991 C 29.6785 -2.65589 123.493 C.2 0 **** 0
28992 C 30.8333 -1.92548 123.619 C.2 0 **** 0
28993 C 31.7587 -1.69047 122.431 C.3 0 **** -0.106
28994 C 31.4825 -2.64495 121.263 C.3 0 **** -0.106
28995 C 29.9842 -2.73772 120.993 C.3 0 **** -0.106
28996 C 29.278 -3.35112 122.216 C.3 0 **** -0.053
28997 C 27.7351 -3.32258 122.058 C.3 0 **** -0.106
28998 C 27.0808 -3.84079 123.312 C.2 0 **** 0
28999 C 27.632 -3.56231 124.564 C.2 0 **** 0
29000 C 26.9749 -4.01443 125.722 C.2 0 **** -0.1268
29001 C 25.7835 -4.70436 125.608 C.2 0 **** -0.1268
29002 C 25.2093 -4.94815 124.373 C.2 0 **** 0
29003 C 25.8564 -4.49564 123.223 C.2 0 **** 0
29004 C 38.8278 5.57687 132.318 C.3 0 **** -0.106
29005 C 38.3414 6.86352 131.618 C.3 0 **** -0.159
29006 C 39.4994 6.46546 134.998 C.3 0 **** -0.159
29007 C 36.317 4.08112 131.9 C.3 0 **** -0.159
29008 C 37.9518 5.54826 137.253 C.3 0 **** -0.159
29009 C 33.7234 3.50605 139.021 C.3 0 **** -0.159
29010 C 31.0307 2.65207 138.538 C.3 0 **** -0.159
29011 O 29.6018 1.21693 136.779 O.3 0 **** -0.452
29012 C 25.1004 2.62773 135.092 C.3 0 **** -0.159
29013 C 24.9429 2.88413 132.255 C.3 0 **** -0.159
29014 O 27.7292 -0.515127 130.41 O.3 0 **** -0.452
29015 O 32.871 1.25414 131.232 O.3 0 **** -0.452
29016 O 33.4141 0.482673 128.929 O.2 0 **** -0.419
29017 O 28.4237 -1.12068 128.073 O.2 0 **** -0.419
29018 C 25.2081 -4.71925 121.867 C.3 0 **** -0.159
29019 C 23.883 -5.68119 124.328 C.3 0 **** -0.159
29020 H 34.1455 3.90881 133.341 H 0 **** 0.053
29021 H 35.0046 2.36962 133.646 H 0 **** 0.053
29022 H 36.117 3.28965 137.435 H 0 **** 0.053
29023 H 35.3609 4.90558 137.484 H 0 **** 0.053
29024 H 32.9607 2.24447 133.008 H 0 **** 0.1268
29025 H 26.5308 1.06449 131.305 H 0 **** 0.053
29026 H 26.0652 0.422613 132.887 H 0 **** 0.053
29027 H 27.0463 3.26937 132.34 H 0 **** 0.053
29028 H 26.8445 3.75618 134.544 H 0 **** 0.053
29029 H 26.7941 0.81957 135.278 H 0 **** 0.053
29030 H 27.7285 2.14293 135.98 H 0 **** 0.053
29031 H 33.7927 0.0541537 126.583 H 0 **** 0.053
29032 H 33.4015 -1.67376 126.524 H 0 **** 0.053
29033 H 33.1429 -0.612502 124.297 H 0 **** 0.053
29034 H 32.0496 0.616719 124.938 H 0 **** 0.053
29035 H 31.6404 -0.648913 122.076 H 0 **** 0.053
29036 H 32.8199 -1.8076 122.716 H 0 **** 0.053
29037 H 31.8677 -3.65373 121.506 H 0 **** 0.053
29038 H 32.0242 -2.31488 120.357 H 0 **** 0.053
29039 H 29.7762 -3.35106 120.096 H 0 **** 0.053
29040 H 29.5763 -1.73046 120.795 H 0 **** 0.053
29041 H 29.5977 -4.41743 122.269 H 0 **** 0.053
29042 H 27.4118 -2.27484 121.864 H 0 **** 0.053
29043 H 27.4659 -3.90747 121.152 H 0 **** 0.053
29044 H 27.3985 -3.82425 126.716 H 0 **** 0.1268
29045 H 25.273 -5.05392 126.519 H 0 **** 0.1268
29046 H 38.8888 4.75944 131.574 H 0 **** 0.053
29047 H 39.8796 5.71634 132.625 H 0 **** 0.053
29048 H 38.3195 7.71304 132.321 H 0 **** 0.053
29049 H 37.3266 6.73882 131.206 H 0 **** 0.053
29050 H 39.0055 7.1479 130.778 H 0 **** 0.053
29051 H 39.4027 7.11263 135.891 H 0 **** 0.053
29052 H 39.6886 7.173 134.168 H 0 **** 0.053
29053 H 40.4237 5.86069 135.13 H 0 **** 0.053
29054 H 35.3296 4.53173 131.652 H 0 **** 0.053
29055 H 36.2017 2.97916 131.814 H 0 **** 0.053
29056 H 36.982 4.37651 131.075 H 0 **** 0.053
29057 H 37.5737 4.84701 138.022 H 0 **** 0.053
29058 H 37.5977 6.5625 137.542 H 0 **** 0.053
29059 H 39.0514 5.53412 137.378 H 0 **** 0.053
29060 H 33.2871 2.8391 139.786 H 0 **** 0.053
29061 H 33.4653 4.55359 139.299 H 0 **** 0.053
29062 H 34.8229 3.39802 139.162 H 0 **** 0.053
29063 H 30.0113 2.99371 138.251 H 0 **** 0.053
29064 H 31.2969 3.34795 139.379 H 0 **** 0.053
29065 H 30.923 1.63584 138.999 H 0 **** 0.053
29066 H 28.9548 0.612312 136.406 H 0 **** 0.41
29067 H 24.3989 3.41926 134.796 H 0 **** 0.053
29068 H 25.2489 2.71183 136.185 H 0 **** 0.053
29069 H 24.6262 1.6451 134.9 H 0 **** 0.053
29070 H 24.9421 2.8168 131.151 H 0 **** 0.053
29071 H 24.6246 3.90198 132.524 H 0 **** 0.053
29072 H 24.1868 2.16212 132.623 H 0 **** 0.053
29073 H 27.6251 -0.833793 129.501 H 0 **** 0.41
29074 H 33.3986 1.07887 130.438 H 0 **** 0.41
29075 H 25.1677 -3.7838 121.278 H 0 **** 0.053
29076 H 24.1619 -5.07495 121.928 H 0 **** 0.053
29077 H 25.7601 -5.47259 121.268 H 0 **** 0.053
29078 H 23.079 -5.05197 123.905 H 0 **** 0.053
29079 H 23.543 -5.9864 125.334 H 0 **** 0.053
29080 H 23.9431 -6.60279 123.723 H 0 **** 0.053
29081 C 22.5151 68.9339 146.417 C.2 0 **** 0
29082 C 22.3971 70.2457 146.849 C.2 0 **** 0
29083 C 23.0025 71.2671 146.135 C.2 0 **** 0
29084 C 23.7024 70.9631 144.993 C.2 0 **** 0
29085 C 23.7782 69.6574 144.524 C.2 0 **** 0
29086 C 23.1728 68.6423 145.235 C.2 0 **** 0
29087 C 24.3942 72.0549 144.203 C.3 0 **** -0.106
29088 C 24.4404 73.4616 144.785 C.2 0 **** 0
29089 C 23.7474 73.7709 145.922 C.2 0 **** 0
29090 C 22.8935 72.7117 146.615 C.3 0 **** -0.106
29091 C 23.8308 75.0642 146.448 C.2 0 **** 0
29092 C 24.6604 76.0143 145.885 C.2 0 **** 0
29093 C 25.2873 75.7246 144.679 C.2 0 **** 0
29094 C 25.1942 74.4453 144.123 C.2 0 **** 0
29095 C 25.8635 74.1446 142.946 C.2 0 **** -0.1268
29096 C 26.7469 74.9969 142.315 C.2 0 **** 0
29097 C 26.9326 76.2493 142.993 C.2 0 **** 0
29098 C 26.0629 76.6564 144.002 C.2 0 **** 0.042
29099 C 27.9512 77.2719 142.45 C.3 0 **** 0
29100 C 28.7105 76.928 141.166 C.3 0 **** 0
29101 C 28.2824 75.66 140.4 C.2 0 **** 0
29102 C 27.3632 74.7285 140.986 C.2 0 **** 0
29103 C 30.1444 77.4979 141.102 C.3 0 **** -0.106
29104 C 30.913 77.2675 142.407 C.3 0 **** -0.053
29105 C 30.2186 77.9636 143.616 C.3 0 **** -0.053
29106 C 28.7126 78.2467 143.382 C.3 0 **** -0.106
29107 C 26.9762 73.6465 140.169 C.2 0 **** 0.042
29108 C 27.4884 73.4993 138.898 C.2 0 **** 0.052
29109 C 28.3545 74.4378 138.357 C.2 0 **** 0.052
29110 C 28.6966 75.5464 139.085 C.2 0 **** 0.042
29111 C 28.9194 74.3079 136.968 C.2 0 **** 0.367
29112 C 28.5007 73.1042 136.191 C.2 0 **** 0
29113 C 27.6532 72.2025 136.701 C.2 0 **** 0
29114 C 27.0861 72.3088 138.066 C.2 0 **** 0.367
29115 C 27.244 70.9798 135.912 C.3 0 **** -0.106
29116 C 28.4493 70.5033 135.063 C.3 0 **** -0.106
29117 C 29.0136 71.6474 134.22 C.2 0 **** 0
29118 C 29.0517 72.9421 134.786 C.2 0 **** 0.2405
29119 N 29.558 74.0003 134.117 N.2 0 **** -0.481
29120 C 30.1144 73.7803 132.93 C.2 0 **** 0.2405
29121 C 30.0804 72.5158 132.298 C.2 0 **** 0
29122 C 29.5138 71.4544 132.957 C.2 0 **** 0
29123 C 29.4735 70.0679 132.333 C.3 0 **** -0.106
29124 C 29.7372 70.079 130.823 C.3 0 **** -0.106
29125 C 30.9347 70.9677 130.505 C.3 0 **** -0.106
29126 C 30.6151 72.4249 130.89 C.3 0 **** -0.053
29127 C 31.8624 73.3349 130.742 C.3 0 **** -0.106
29128 C 31.5387 74.7252 131.22 C.2 0 **** 0
29129 C 30.693 74.9184 132.314 C.2 0 **** 0
29130 C 30.443 76.2244 132.771 C.2 0 **** -0.1268
29131 C 31.0588 77.2942 132.151 C.2 0 **** -0.1268
29132 C 31.9313 77.1081 131.093 C.2 0 **** 0
29133 C 32.1832 75.8134 130.641 C.2 0 **** 0
29134 C 23.2009 67.2286 144.714 C.3 0 **** -0.106
29135 C 24.5028 66.5097 145.126 C.3 0 **** -0.159
29136 C 21.9165 67.8274 147.246 C.3 0 **** -0.159
29137 C 24.5526 69.4078 143.25 C.3 0 **** -0.159
29138 C 21.6175 70.5666 148.101 C.3 0 **** -0.159
29139 C 23.0093 75.3711 147.701 C.3 0 **** -0.159
29140 C 24.8354 77.3092 146.644 C.3 0 **** -0.159
29141 O 26.0643 77.9678 144.363 O.3 0 **** -0.452
29142 C 30.8296 79.3168 143.985 C.3 0 **** -0.159
29143 C 32.3614 77.7176 142.183 C.3 0 **** -0.159
29144 O 29.4525 76.5678 138.576 O.3 0 **** -0.452
29145 O 26.0769 72.7373 140.622 O.3 0 **** -0.452
29146 O 26.3357 71.4884 138.486 O.2 0 **** -0.419
29147 O 29.6957 75.1132 136.541 O.2 0 **** -0.419
29148 C 33.1736 75.5994 129.509 C.3 0 **** -0.159
29149 C 32.5925 78.3283 130.485 C.3 0 **** -0.159
29150 H 25.4484 71.7284 144.045 H 0 **** 0.053
29151 H 23.9228 72.1089 143.191 H 0 **** 0.053
29152 H 21.823 73.0198 146.537 H 0 **** 0.053
29153 H 23.1476 72.7292 147.697 H 0 **** 0.053
29154 H 25.6829 73.1609 142.571 H 0 **** 0.1268
29155 H 30.7127 77.0557 140.282 H 0 **** 0.053
29156 H 30.0378 78.5675 140.907 H 0 **** 0.053
29157 H 30.9263 76.18 142.602 H 0 **** 0.053
29158 H 30.3132 77.2912 144.479 H 0 **** 0.053
29159 H 28.6026 79.2159 142.888 H 0 **** 0.053
29160 H 28.231 78.3236 144.363 H 0 **** 0.053
29161 H 26.9046 70.1492 136.557 H 0 **** 0.053
29162 H 26.391 71.2468 135.264 H 0 **** 0.053
29163 H 28.1085 69.6432 134.463 H 0 **** 0.053
29164 H 29.2279 70.1012 135.745 H 0 **** 0.053
29165 H 30.2216 69.4183 132.824 H 0 **** 0.053
29166 H 28.4934 69.5951 132.494 H 0 **** 0.053
29167 H 28.8491 70.4667 130.289 H 0 **** 0.053
29168 H 29.8999 69.0507 130.45 H 0 **** 0.053
29169 H 31.2031 70.9127 129.432 H 0 **** 0.053
29170 H 31.8169 70.619 131.072 H 0 **** 0.053
29171 H 29.8327 72.7939 130.183 H 0 **** 0.053
29172 H 32.6966 72.9074 131.343 H 0 **** 0.053
29173 H 32.1932 73.3028 129.681 H 0 **** 0.053
29174 H 29.7702 76.4039 133.619 H 0 **** 0.1268
29175 H 30.862 78.3146 132.517 H 0 **** 0.1268
29176 H 23.0972 67.1876 143.612 H 0 **** 0.053
29177 H 22.34 66.6354 145.07 H 0 **** 0.053
29178 H 24.6123 66.4859 146.223 H 0 **** 0.053
29179 H 25.3901 67.013 144.709 H 0 **** 0.053
29180 H 24.5213 65.4603 144.77 H 0 **** 0.053
29181 H 21.898 68.0618 148.328 H 0 **** 0.053
29182 H 22.4905 66.8835 147.181 H 0 **** 0.053
29183 H 20.8715 67.5974 146.943 H 0 **** 0.053
29184 H 25.623 69.6937 143.36 H 0 **** 0.053
29185 H 24.1463 69.993 142.398 H 0 **** 0.053
29186 H 24.5686 68.361 142.913 H 0 **** 0.053
29187 H 21.2163 71.5983 148.12 H 0 **** 0.053
29188 H 22.242 70.4492 149.014 H 0 **** 0.053
29189 H 20.7286 69.9186 148.222 H 0 **** 0.053
29190 H 22.6699 76.4217 147.74 H 0 **** 0.053
29191 H 23.5826 75.1673 148.635 H 0 **** 0.053
29192 H 22.0675 74.7799 147.768 H 0 **** 0.053
29193 H 25.8938 77.6515 146.653 H 0 **** 0.053
29194 H 24.5891 77.2522 147.739 H 0 **** 0.053
29195 H 24.2173 78.1494 146.233 H 0 **** 0.053
29196 H 26.3722 78.504 143.628 H 0 **** 0.41
29197 H 31.8712 79.2149 144.317 H 0 **** 0.053
29198 H 30.2641 79.7834 144.814 H 0 **** 0.053
29199 H 30.7978 80.0195 143.129 H 0 **** 0.053
29200 H 32.8275 77.1382 141.364 H 0 **** 0.053
29201 H 32.9726 77.565 143.085 H 0 **** 0.053
29202 H 32.4156 78.7863 141.895 H 0 **** 0.053
29203 H 29.7869 76.2905 137.709 H 0 **** 0.41
29204 H 25.9534 72.0361 139.964 H 0 **** 0.41
29205 H 33.9214 74.8257 129.765 H 0 **** 0.053
29206 H 33.7594 76.5034 129.255 H 0 **** 0.053
29207 H 32.6667 75.2827 128.574 H 0 **** 0.053
29208 H 33.691 78.3049 130.606 H 0 **** 0.053
29209 H 32.2467 79.2664 130.953 H 0 **** 0.053
29210 H 32.3763 78.418 129.406 H 0 **** 0.053
29211 C 48.4553 97.9123 142.798 C.2 0 **** 0
29212 C 48.8136 96.6194 142.45 C.2 0 **** 0
29213 C 47.8508 95.6243 142.398 C.2 0 **** 0
29214 C 46.5448 95.9392 142.68 C.2 0 **** 0
29215 C 46.1702 97.2442 142.976 C.2 0 **** 0
29216 C 47.1292 98.2346 143.025 C.2 0 **** 0
29217 C 45.4735 94.8677 142.655 C.3 0 **** -0.106
29218 C 45.8954 93.4155 142.477 C.2 0 **** 0
29219 C 47.194 93.0939 142.197 C.2 0 **** 0
29220 C 48.2406 94.194 142.034 C.3 0 **** -0.106
29221 C 47.5584 91.75 142.066 C.2 0 **** 0
29222 C 46.6469 90.7367 142.288 C.2 0 **** 0
29223 C 45.3085 91.0643 142.472 C.2 0 **** 0
29224 C 44.924 92.4056 142.588 C.2 0 **** 0
29225 C 43.5979 92.7313 142.829 C.2 0 **** -0.1268
29226 C 42.6079 91.8106 143.104 C.2 0 **** 0
29227 C 43.0708 90.4473 143.123 C.2 0 **** 0
29228 C 44.3149 90.0971 142.592 C.2 0 **** 0.042
29229 C 42.093 89.3169 143.501 C.3 0 **** 0
29230 C 40.6372 89.6836 143.8 C.3 0 **** 0
29231 C 40.1951 91.1362 143.532 C.2 0 **** 0
29232 C 41.1638 92.15 143.233 C.2 0 **** 0
29233 C 39.9554 88.7843 144.853 C.3 0 **** -0.106
29234 C 40.844 88.5663 146.081 C.3 0 **** -0.053
29235 C 42.1851 87.8651 145.707 C.3 0 **** -0.053
29236 C 42.5706 88.0285 144.213 C.3 0 **** -0.106
29237 C 40.6481 93.4252 142.926 C.2 0 **** 0.042
29238 C 39.2905 93.6649 142.947 C.2 0 **** 0.052
29239 C 38.3832 92.6505 143.214 C.2 0 **** 0.052
29240 C 38.8361 91.3779 143.442 C.2 0 **** 0.042
29241 C 36.8949 92.8815 143.232 C.2 0 **** 0.367
29242 C 36.4351 94.2732 142.95 C.2 0 **** 0
29243 C 37.3038 95.2541 142.677 C.2 0 **** 0
29244 C 38.7722 95.0501 142.655 C.2 0 **** 0.367
29245 C 36.8307 96.6634 142.404 C.3 0 **** -0.106
29246 C 35.5946 96.9613 143.289 C.3 0 **** -0.106
29247 C 34.5244 95.8834 143.115 C.2 0 **** 0
29248 C 34.9409 94.5415 142.96 C.2 0 **** 0.2405
29249 N 34.0579 93.5287 142.83 N.2 0 **** -0.481
29250 C 32.7636 93.8107 142.942 C.2 0 **** 0.2405
29251 C 32.2834 95.1352 143.067 C.2 0 **** 0
29252 C 33.1823 96.1695 143.14 C.2 0 **** 0
29253 C 32.722 97.6131 143.299 C.3 0 **** -0.106
29254 C 31.2357 97.8031 142.973 C.3 0 **** -0.106
29255 C 30.4009 96.7085 143.629 C.3 0 **** -0.106
29256 C 30.7889 95.3384 143.041 C.3 0 **** -0.053
29257 C 30.0853 94.1796 143.796 C.3 0 **** -0.106
29258 C 30.5642 92.8569 143.26 C.2 0 **** 0
29259 C 31.8938 92.6935 142.867 C.2 0 **** 0
29260 C 32.3289 91.4353 142.414 C.2 0 **** -0.1268
29261 C 31.4449 90.3739 142.391 C.2 0 **** -0.1268
29262 C 30.1369 90.5174 142.819 C.2 0 **** 0
29263 C 29.7043 91.7633 143.272 C.2 0 **** 0
29264 C 46.7331 99.6638 143.295 C.3 0 **** -0.106
29265 C 46.6223 99.9343 144.811 C.3 0 **** -0.159
29266 C 49.5254 98.9651 142.926 C.3 0 **** -0.159
29267 C 44.7104 97.5132 143.26 C.3 0 **** -0.159
29268 C 50.2518 96.2879 142.134 C.3 0 **** -0.159
29269 C 49.0154 91.444 141.718 C.3 0 **** -0.159
29270 C 47.1829 89.325 142.324 C.3 0 **** -0.159
29271 O 44.5556 88.7883 142.281 O.3 0 **** -0.452
29272 C 42.184 86.3562 145.96 C.3 0 **** -0.159
29273 C 40.0187 87.8061 147.126 C.3 0 **** -0.159
29274 O 37.9976 90.3077 143.601 O.3 0 **** -0.452
29275 O 41.4846 94.4388 142.59 O.3 0 **** -0.452
29276 O 39.5131 95.9467 142.41 O.2 0 **** -0.419
29277 O 36.1383 91.9948 143.505 O.2 0 **** -0.419
29278 C 28.2821 91.9164 143.785 C.3 0 **** -0.159
29279 C 29.2348 89.2996 142.794 C.3 0 **** -0.159
29280 H 44.9201 94.9349 143.621 H 0 **** 0.053
29281 H 44.7418 95.1226 141.85 H 0 **** 0.053
29282 H 48.5889 94.1927 140.973 H 0 **** 0.053
29283 H 49.1215 93.9153 142.654 H 0 **** 0.053
29284 H 43.3927 93.778 142.837 H 0 **** 0.1268
29285 H 39.0044 89.2064 145.183 H 0 **** 0.053
29286 H 39.7533 87.8331 144.355 H 0 **** 0.053
29287 H 41.0848 89.5592 146.502 H 0 **** 0.053
29288 H 42.9743 88.3215 146.319 H 0 **** 0.053
29289 H 42.1027 87.2271 143.635 H 0 **** 0.053
29290 H 43.6568 87.9046 144.127 H 0 **** 0.053
29291 H 37.6101 97.4212 142.604 H 0 **** 0.053
29292 H 36.5726 96.7478 141.334 H 0 **** 0.053
29293 H 35.2427 97.9747 143.03 H 0 **** 0.053
29294 H 35.9215 97.0176 144.349 H 0 **** 0.053
29295 H 32.9032 97.9423 144.341 H 0 **** 0.053
29296 H 33.2977 98.2956 142.648 H 0 **** 0.053
29297 H 31.0851 97.7612 141.877 H 0 **** 0.053
29298 H 30.8936 98.8041 143.296 H 0 **** 0.053
29299 H 29.3185 96.8868 143.483 H 0 **** 0.053
29300 H 30.5787 96.7073 144.72 H 0 **** 0.053
29301 H 30.4409 95.319 141.98 H 0 **** 0.053
29302 H 30.3188 94.2594 144.882 H 0 **** 0.053
29303 H 28.9862 94.3175 143.702 H 0 **** 0.053
29304 H 33.3642 91.2838 142.084 H 0 **** 0.1268
29305 H 31.7934 89.3899 142.038 H 0 **** 0.1268
29306 H 45.7753 99.9316 142.808 H 0 **** 0.053
29307 H 47.4469 100.384 142.858 H 0 **** 0.053
29308 H 47.5776 99.7286 145.321 H 0 **** 0.053
29309 H 45.8475 99.3037 145.277 H 0 **** 0.053
29310 H 46.3572 100.99 145.019 H 0 **** 0.053
29311 H 50.5033 98.55 143.24 H 0 **** 0.053
29312 H 49.2915 99.7239 143.697 H 0 **** 0.053
29313 H 49.6915 99.5089 141.97 H 0 **** 0.053
29314 H 44.3552 96.9454 144.149 H 0 **** 0.053
29315 H 44.0627 97.2184 142.406 H 0 **** 0.053
29316 H 44.4634 98.5638 143.473 H 0 **** 0.053
29317 H 50.368 95.4093 141.471 H 0 **** 0.053
29318 H 50.8349 96.0718 143.057 H 0 **** 0.053
29319 H 50.7673 97.1101 141.602 H 0 **** 0.053
29320 H 49.1227 90.5285 141.11 H 0 **** 0.053
29321 H 49.6436 91.3195 142.63 H 0 **** 0.053
29322 H 49.4977 92.2364 141.101 H 0 **** 0.053
29323 H 46.7318 88.7274 143.147 H 0 **** 0.053
29324 H 48.284 89.2442 142.536 H 0 **** 0.053
29325 H 47.0091 88.7613 141.371 H 0 **** 0.053
29326 H 43.7198 88.3296 142.162 H 0 **** 0.41
29327 H 42.0668 86.1234 147.027 H 0 **** 0.053
29328 H 43.1398 85.9082 145.629 H 0 **** 0.053
29329 H 41.373 85.8545 145.397 H 0 **** 0.053
29330 H 39.1193 88.3848 147.409 H 0 **** 0.053
29331 H 40.5994 87.6286 148.044 H 0 **** 0.053
29332 H 39.6659 86.831 146.735 H 0 **** 0.053
29333 H 37.0887 90.6408 143.65 H 0 **** 0.41
29334 H 40.9796 95.2543 142.451 H 0 **** 0.41
29335 H 28.259 92.4104 144.774 H 0 **** 0.053
29336 H 27.7542 90.9536 143.923 H 0 **** 0.053
29337 H 27.6581 92.5182 143.092 H 0 **** 0.053
29338 H 28.8979 89.0157 143.808 H 0 **** 0.053
29339 H 29.7434 88.4137 142.375 H 0 **** 0.053
29340 H 28.3352 89.4668 142.176 H 0 **** 0.053
29341 C 20.6437 98.561 131.461 C.2 0 **** 0
29342 C 19.6109 98.2985 132.347 C.2 0 **** 0
29343 C 18.7396 97.2492 132.104 C.2 0 **** 0
29344 C 18.9242 96.4695 130.989 C.2 0 **** 0
29345 C 19.993 96.6905 130.128 C.2 0 **** 0
29346 C 20.8609 97.7343 130.374 C.2 0 **** 0
29347 C 17.9734 95.3304 130.682 C.3 0 **** -0.106
29348 C 16.7217 95.1739 131.534 C.2 0 **** 0
29349 C 16.5303 95.9473 132.645 C.2 0 **** 0
29350 C 17.5856 96.9689 133.062 C.3 0 **** -0.106
29351 C 15.3583 95.8003 133.394 C.2 0 **** 0
29352 C 14.3555 94.9408 132.991 C.2 0 **** 0
29353 C 14.593 94.0834 131.923 C.2 0 **** 0
29354 C 15.7692 94.2054 131.173 C.2 0 **** 0
29355 C 15.9815 93.3889 130.073 C.2 0 **** -0.1268
29356 C 15.0421 92.5217 129.555 C.2 0 **** 0
29357 C 13.7886 92.5314 130.263 C.2 0 **** 0
29358 C 13.6758 93.114 131.528 C.2 0 **** 0.042
29359 C 12.6152 91.6763 129.745 C.3 0 **** 0
29360 C 12.8422 90.8018 128.509 C.3 0 **** 0
29361 C 14.2799 90.6928 127.963 C.2 0 **** 0
29362 C 15.3144 91.554 128.456 C.2 0 **** 0
29363 C 11.5952 90.6198 127.618 C.3 0 **** -0.106
29364 C 10.8763 91.9478 127.361 C.3 0 **** -0.053
29365 C 10.378 92.6009 128.686 C.3 0 **** -0.053
29366 C 11.1419 92.1073 129.942 C.3 0 **** -0.106
29367 C 16.6081 91.3177 127.949 C.2 0 **** 0.042
29368 C 16.8335 90.3308 127.013 C.2 0 **** 0.052
29369 C 15.8108 89.4996 126.581 C.2 0 **** 0.052
29370 C 14.5534 89.6423 127.106 C.2 0 **** 0.042
29371 C 16.0309 88.4059 125.569 C.2 0 **** 0.367
29372 C 17.4197 88.2591 125.042 C.2 0 **** 0
29373 C 18.415 89.0474 125.465 C.2 0 **** 0
29374 C 18.2212 90.1303 126.459 C.2 0 **** 0.367
29375 C 19.8163 88.8995 124.917 C.3 0 **** -0.106
29376 C 19.7343 88.5082 123.42 C.3 0 **** -0.106
29377 C 18.8382 87.2851 123.223 C.2 0 **** 0
29378 C 17.6772 87.1661 124.02 C.2 0 **** 0.2405
29379 N 16.8216 86.13 123.888 N.2 0 **** -0.481
29380 C 17.0458 85.255 122.913 C.2 0 **** 0.2405
29381 C 18.2041 85.3028 122.103 C.2 0 **** 0
29382 C 19.1035 86.3243 122.279 C.2 0 **** 0
29383 C 20.3562 86.4379 121.419 C.3 0 **** -0.106
29384 C 20.6823 85.1409 120.669 C.3 0 **** -0.106
29385 C 19.4241 84.5633 120.029 C.3 0 **** -0.106
29386 C 18.4175 84.1719 121.128 C.3 0 **** -0.053
29387 C 17.0584 83.7353 120.519 C.3 0 **** -0.106
29388 C 16.0723 83.4565 121.622 C.2 0 **** 0
29389 C 16.0713 84.2335 122.782 C.2 0 **** 0
29390 C 15.1099 83.9839 123.778 C.2 0 **** -0.1268
29391 C 14.1645 82.9955 123.583 C.2 0 **** -0.1268
29392 C 14.1328 82.2498 122.418 C.2 0 **** 0
29393 C 15.083 82.498 121.427 C.2 0 **** 0
29394 C 22.0542 97.9554 129.48 C.3 0 **** -0.106
29395 C 21.6733 98.7916 128.241 C.3 0 **** -0.159
29396 C 21.5289 99.7545 131.7 C.3 0 **** -0.159
29397 C 20.1387 95.7773 128.933 C.3 0 **** -0.159
29398 C 19.4256 99.1584 133.574 C.3 0 **** -0.159
29399 C 15.2075 96.6642 134.646 C.3 0 **** -0.159
29400 C 13.0502 95.0043 133.748 C.3 0 **** -0.159
29401 O 12.6126 92.778 132.318 O.3 0 **** -0.452
29402 C 8.90027 92.3399 128.984 C.3 0 **** -0.159
29403 C 9.76061 91.6857 126.342 C.3 0 **** -0.159
29404 O 13.5244 88.7887 126.813 O.3 0 **** -0.452
29405 O 17.6602 92.0531 128.388 O.3 0 **** -0.452
29406 O 19.1306 90.8099 126.811 O.2 0 **** -0.419
29407 O 15.1212 87.7288 125.187 O.2 0 **** -0.419
29408 C 15.0263 81.7129 120.128 C.3 0 **** -0.159
29409 C 13.0462 81.2045 122.263 C.3 0 **** -0.159
29410 H 17.6407 95.4567 129.626 H 0 **** 0.053
29411 H 18.5488 94.3734 130.722 H 0 **** 0.053
29412 H 18.0212 96.6456 134.038 H 0 **** 0.053
29413 H 17.0647 97.9327 133.255 H 0 **** 0.053
29414 H 16.9327 93.5117 129.606 H 0 **** 0.1268
29415 H 11.8534 90.1727 126.656 H 0 **** 0.053
29416 H 10.9385 89.9287 128.151 H 0 **** 0.053
29417 H 11.6015 92.6377 126.893 H 0 **** 0.053
29418 H 10.529 93.6845 128.593 H 0 **** 0.053
29419 H 10.6584 91.2022 130.321 H 0 **** 0.053
29420 H 11.052 92.8766 130.719 H 0 **** 0.053
29421 H 20.4136 89.824 125.018 H 0 **** 0.053
29422 H 20.3402 88.1188 125.496 H 0 **** 0.053
29423 H 20.7681 88.3573 123.065 H 0 **** 0.053
29424 H 19.3418 89.375 122.847 H 0 **** 0.053
29425 H 20.2215 87.2526 120.682 H 0 **** 0.053
29426 H 21.2405 86.7051 122.026 H 0 **** 0.053
29427 H 21.1011 84.3965 121.372 H 0 **** 0.053
29428 H 21.4629 85.3212 119.906 H 0 **** 0.053
29429 H 19.6603 83.6807 119.405 H 0 **** 0.053
29430 H 18.968 85.3149 119.359 H 0 **** 0.053
29431 H 18.8446 83.2977 121.677 H 0 **** 0.053
29432 H 16.6771 84.5494 119.862 H 0 **** 0.053
29433 H 17.2363 82.8581 119.86 H 0 **** 0.053
29434 H 15.0962 84.5691 124.706 H 0 **** 0.1268
29435 H 13.4116 82.808 124.365 H 0 **** 0.1268
29436 H 22.5122 97.0027 129.15 H 0 **** 0.053
29437 H 22.8809 98.4622 130.007 H 0 **** 0.053
29438 H 21.2632 99.7719 128.535 H 0 **** 0.053
29439 H 20.9156 98.2784 127.626 H 0 **** 0.053
29440 H 22.5506 98.9825 127.591 H 0 **** 0.053
29441 H 21.0078 100.586 132.211 H 0 **** 0.053
29442 H 21.9145 100.201 130.765 H 0 **** 0.053
29443 H 22.4042 99.4936 132.329 H 0 **** 0.053
29444 H 19.2574 95.847 128.256 H 0 **** 0.053
29445 H 20.2328 94.7121 129.235 H 0 **** 0.053
29446 H 21.009 95.9836 128.292 H 0 **** 0.053
29447 H 18.9009 98.6426 134.401 H 0 **** 0.053
29448 H 18.8394 100.076 133.346 H 0 **** 0.053
29449 H 20.3888 99.4822 134.013 H 0 **** 0.053
29450 H 14.626 96.1626 135.44 H 0 **** 0.053
29451 H 14.7082 97.6351 134.424 H 0 **** 0.053
29452 H 16.1785 96.9068 135.135 H 0 **** 0.053
29453 H 12.1702 94.9537 133.069 H 0 **** 0.053
29454 H 12.8759 95.9638 134.307 H 0 **** 0.053
29455 H 12.9354 94.1824 134.502 H 0 **** 0.053
29456 H 12.2508 91.9371 132.026 H 0 **** 0.41
29457 H 8.24675 92.7851 128.222 H 0 **** 0.053
29458 H 8.61864 92.7828 129.958 H 0 **** 0.053
29459 H 8.68704 91.2544 129.043 H 0 **** 0.053
29460 H 10.1799 91.2944 125.396 H 0 **** 0.053
29461 H 9.21095 92.6084 126.103 H 0 **** 0.053
29462 H 9.03979 90.9301 126.713 H 0 **** 0.053
29463 H 13.8156 88.1955 126.104 H 0 **** 0.41
29464 H 18.4647 91.8006 127.91 H 0 **** 0.41
29465 H 15.0651 82.3822 119.248 H 0 **** 0.053
29466 H 14.0993 81.1205 120.007 H 0 **** 0.053
29467 H 15.8688 80.9954 120.044 H 0 **** 0.053
29468 H 12.371 81.4344 121.418 H 0 **** 0.053
29469 H 12.4083 81.1312 123.161 H 0 **** 0.053
29470 H 13.4655 80.1975 122.092 H 0 **** 0.053
29471 C 36.4978 75.9134 135.93 C.2 0 **** 0
29472 C 37.2297 74.7537 135.728 C.2 0 **** 0
29473 C 38.2093 74.3857 136.637 C.2 0 **** 0
29474 C 38.4319 75.1732 137.739 C.2 0 **** 0
29475 C 37.6642 76.3071 137.976 C.2 0 **** 0
29476 C 36.6877 76.6706 137.072 C.2 0 **** 0
29477 C 39.5115 74.8092 138.738 C.3 0 **** -0.106
29478 C 40.4511 73.6562 138.412 C.2 0 **** 0
29479 C 40.2369 72.8681 137.316 C.2 0 **** 0
29480 C 39.0329 73.1205 136.411 C.3 0 **** -0.106
29481 C 41.1313 71.8329 137.026 C.2 0 **** 0
29482 C 42.269 71.6375 137.784 C.2 0 **** 0
29483 C 42.4325 72.3706 138.954 C.2 0 **** 0
29484 C 41.5362 73.3991 139.268 C.2 0 **** 0
29485 C 41.7306 74.1687 140.405 C.2 0 **** -0.1268
29486 C 42.844 74.0917 141.216 C.2 0 **** 0
29487 C 43.8167 73.1248 140.778 C.2 0 **** 0
29488 C 43.4946 72.1533 139.826 C.2 0 **** 0.042
29489 C 45.1514 72.9899 141.537 C.3 0 **** 0
29490 C 45.3775 73.8654 142.772 C.3 0 **** 0
29491 C 44.1874 74.7005 143.286 C.2 0 **** 0
29492 C 42.9919 74.8236 142.504 C.2 0 **** 0
29493 C 46.8469 74.2776 143.003 C.3 0 **** -0.106
29494 C 47.5113 74.7737 141.715 C.3 0 **** -0.053
29495 C 47.5317 73.6702 140.614 C.3 0 **** -0.053
29496 C 46.4583 72.57 140.823 C.3 0 **** -0.106
29497 C 41.9361 75.542 143.101 C.2 0 **** 0.042
29498 C 42.0801 76.1081 144.349 C.2 0 **** 0.052
29499 C 43.2436 75.9432 145.086 C.2 0 **** 0.052
29500 C 44.2665 75.187 144.578 C.2 0 **** 0.042
29501 C 43.4236 76.5409 146.457 C.2 0 **** 0.367
29502 C 42.2782 77.3331 146.992 C.2 0 **** 0
29503 C 41.146 77.4833 146.294 C.2 0 **** 0
29504 C 40.9466 76.9057 144.943 C.2 0 **** 0.367
29505 C 39.994 78.2967 146.838 C.3 0 **** -0.106
29506 C 40.5579 79.4917 147.647 C.3 0 **** -0.106
29507 C 41.5576 79.016 148.701 C.2 0 **** 0
29508 C 42.4256 77.9502 148.371 C.2 0 **** 0.2405
29509 N 43.3564 77.4918 149.236 N.2 0 **** -0.481
29510 C 43.4968 78.1245 150.396 C.2 0 **** 0.2405
29511 C 42.6334 79.1698 150.8 C.2 0 **** 0
29512 C 41.6604 79.6062 149.936 C.2 0 **** 0
29513 C 40.7277 80.7536 150.305 C.3 0 **** -0.106
29514 C 40.7382 81.0752 151.804 C.3 0 **** -0.106
29515 C 42.1678 81.1135 152.331 C.3 0 **** -0.106
29516 C 42.7957 79.7096 152.202 C.3 0 **** -0.053
29517 C 44.2928 79.7467 152.563 C.3 0 **** -0.106
29518 C 44.9407 78.4153 152.312 C.2 0 **** 0
29519 C 44.5378 77.6372 151.227 C.2 0 **** 0
29520 C 45.1708 76.4037 150.988 C.2 0 **** -0.1268
29521 C 46.2 75.9931 151.813 C.2 0 **** -0.1268
29522 C 46.6392 76.7829 152.861 C.2 0 **** 0
29523 C 46.0163 78.0097 153.095 C.2 0 **** 0
29524 C 35.8123 77.8679 137.34 C.3 0 **** -0.106
29525 C 36.493 79.1707 136.87 C.3 0 **** -0.159
29526 C 35.4903 76.3401 134.894 C.3 0 **** -0.159
29527 C 37.9584 77.1115 139.222 C.3 0 **** -0.159
29528 C 36.9697 73.8925 134.516 C.3 0 **** -0.159
29529 C 40.8289 70.9586 135.809 C.3 0 **** -0.159
29530 C 43.2722 70.6315 137.271 C.3 0 **** -0.159
29531 O 44.2869 71.0452 139.719 O.3 0 **** -0.452
29532 C 48.8623 72.9212 140.516 C.3 0 **** -0.159
29533 C 48.901 75.308 142.082 C.3 0 **** -0.159
29534 O 45.3955 74.8883 145.293 O.3 0 **** -0.452
29535 O 40.7499 75.6759 142.456 O.3 0 **** -0.452
29536 O 39.9271 77.0619 144.353 O.2 0 **** -0.419
29537 O 44.4548 76.4159 147.053 O.2 0 **** -0.419
29538 C 46.5272 78.898 154.218 C.3 0 **** -0.159
29539 C 47.7942 76.277 153.704 C.3 0 **** -0.159
29540 H 40.1412 75.717 138.886 H 0 **** 0.053
29541 H 39.0228 74.5976 139.721 H 0 **** 0.053
29542 H 38.3448 72.2445 136.49 H 0 **** 0.053
29543 H 39.3985 73.1375 135.36 H 0 **** 0.053
29544 H 40.9611 74.8829 140.594 H 0 **** 0.1268
29545 H 46.9283 75.0605 143.759 H 0 **** 0.053
29546 H 47.3577 73.387 143.376 H 0 **** 0.053
29547 H 46.9157 75.6229 141.334 H 0 **** 0.053
29548 H 47.3379 74.1641 139.652 H 0 **** 0.053
29549 H 46.8675 71.7914 141.473 H 0 **** 0.053
29550 H 46.2503 72.1091 139.849 H 0 **** 0.053
29551 H 39.3292 78.6799 146.042 H 0 **** 0.053
29552 H 39.3763 77.6465 147.482 H 0 **** 0.053
29553 H 39.6961 80.0339 148.073 H 0 **** 0.053
29554 H 41.0423 80.2009 146.943 H 0 **** 0.053
29555 H 41.0231 81.6605 149.743 H 0 **** 0.053
29556 H 39.6842 80.5317 150.018 H 0 **** 0.053
29557 H 40.1793 80.2971 152.357 H 0 **** 0.053
29558 H 40.2203 82.032 152 H 0 **** 0.053
29559 H 42.202 81.4444 153.386 H 0 **** 0.053
29560 H 42.7581 81.8452 151.75 H 0 **** 0.053
29561 H 42.2739 79.0331 152.918 H 0 **** 0.053
29562 H 44.7233 80.5128 151.893 H 0 **** 0.053
29563 H 44.4166 80.1145 153.602 H 0 **** 0.053
29564 H 44.8556 75.7606 150.155 H 0 **** 0.1268
29565 H 46.6869 75.0221 151.625 H 0 **** 0.1268
29566 H 35.5495 77.9618 138.412 H 0 **** 0.053
29567 H 34.828 77.7836 136.846 H 0 **** 0.053
29568 H 36.7213 79.1318 135.792 H 0 **** 0.053
29569 H 37.4376 79.3489 137.41 H 0 **** 0.053
29570 H 35.8456 80.0544 137.038 H 0 **** 0.053
29571 H 35.7644 76.0218 133.869 H 0 **** 0.053
29572 H 35.3897 77.4396 134.82 H 0 **** 0.053
29573 H 34.4768 75.9318 135.103 H 0 **** 0.053
29574 H 38.9969 77.5127 139.213 H 0 **** 0.053
29575 H 37.8543 76.4997 140.144 H 0 **** 0.053
29576 H 37.313 77.9895 139.372 H 0 **** 0.053
29577 H 37.2529 72.8317 134.658 H 0 **** 0.053
29578 H 37.5295 74.2571 133.626 H 0 **** 0.053
29579 H 35.8978 73.8617 134.242 H 0 **** 0.053
29580 H 41.1748 69.9179 135.938 H 0 **** 0.053
29581 H 41.3 71.3588 134.882 H 0 **** 0.053
29582 H 39.7399 70.8573 135.598 H 0 **** 0.053
29583 H 44.3188 70.994 137.376 H 0 **** 0.053
29584 H 43.1969 70.4091 136.172 H 0 **** 0.053
29585 H 43.2106 69.6404 137.792 H 0 **** 0.053
29586 H 44.7807 70.9243 140.534 H 0 **** 0.41
29587 H 49.6832 73.5879 140.22 H 0 **** 0.053
29588 H 48.7997 72.1196 139.755 H 0 **** 0.053
29589 H 49.1261 72.4408 141.479 H 0 **** 0.053
29590 H 48.8208 76.1384 142.808 H 0 **** 0.053
29591 H 49.4286 75.6935 141.196 H 0 **** 0.053
29592 H 49.5272 74.5248 142.554 H 0 **** 0.053
29593 H 45.3761 75.4009 146.114 H 0 **** 0.41
29594 H 40.1489 76.231 142.975 H 0 **** 0.41
29595 H 46.7129 79.9308 153.869 H 0 **** 0.053
29596 H 47.4877 78.5581 154.651 H 0 **** 0.053
29597 H 45.8064 78.9493 155.059 H 0 **** 0.053
29598 H 48.6776 76.9374 153.633 H 0 **** 0.053
29599 H 48.1292 75.2722 153.391 H 0 **** 0.053
29600 H 47.5199 76.196 154.77 H 0 **** 0.053
29601 C 19.1638 -3.03318 118.989 C.2 0 **** 0
29602 C 19.1237 -4.05788 118.057 C.2 0 **** 0
29603 C 19.7272 -3.89272 116.82 C.2 0 **** 0
29604 C 20.3734 -2.71397 116.541 C.2 0 **** 0
29605 C 20.4653 -1.70436 117.492 C.2 0 **** 0
29606 C 19.8658 -1.8712 118.723 C.2 0 **** 0
29607 C 21.0236 -2.49504 115.19 C.3 0 **** -0.106
29608 C 20.8031 -3.53097 114.096 C.2 0 **** 0
29609 C 20.1595 -4.70653 114.366 C.2 0 **** 0
29610 C 19.6702 -5.00855 115.78 C.3 0 **** -0.106
29611 C 19.9471 -5.62802 113.335 C.2 0 **** 0
29612 C 20.3089 -5.34165 112.034 C.2 0 **** 0
29613 C 21.0523 -4.19495 111.779 C.2 0 **** 0
29614 C 21.2891 -3.27021 112.803 C.2 0 **** 0
29615 C 21.9814 -2.09858 112.537 C.2 0 **** -0.1268
29616 C 22.3593 -1.68749 111.275 C.2 0 **** 0
29617 C 21.9676 -2.59335 110.227 C.2 0 **** 0
29618 C 21.5482 -3.89494 110.513 C.2 0 **** 0.042
29619 C 22.2467 -2.22211 108.757 C.3 0 **** 0
29620 C 22.9814 -0.911567 108.464 C.3 0 **** 0
29621 C 23.5538 -0.12829 109.662 C.2 0 **** 0
29622 C 23.2131 -0.497723 111.005 C.2 0 **** 0
29623 C 22.5684 -0.229523 107.142 C.3 0 **** -0.106
29624 C 21.0465 -0.182748 106.973 C.3 0 **** -0.053
29625 C 20.4246 -1.61201 106.943 C.3 0 **** -0.053
29626 C 21.3217 -2.68921 107.607 C.3 0 **** -0.106
29627 C 23.8529 0.231913 112.027 C.2 0 **** 0.042
29628 C 24.7272 1.2549 111.727 C.2 0 **** 0.052
29629 C 25.0524 1.56419 110.415 C.2 0 **** 0.052
29630 C 24.5145 0.829508 109.392 C.2 0 **** 0.042
29631 C 26.0134 2.66817 110.059 C.2 0 **** 0.367
29632 C 26.6045 3.42754 111.2 C.2 0 **** 0
29633 C 26.3075 3.12469 112.469 C.2 0 **** 0
29634 C 25.3642 2.04399 112.842 C.2 0 **** 0.367
29635 C 26.9027 3.90526 113.618 C.3 0 **** -0.106
29636 C 27.0443 5.39018 113.2 C.3 0 **** -0.106
29637 C 27.8054 5.51676 111.88 C.2 0 **** 0
29638 C 27.5776 4.54709 110.877 C.2 0 **** 0.2405
29639 N 28.192 4.60171 109.676 N.2 0 **** -0.481
29640 C 28.9555 5.65786 109.413 C.2 0 **** 0.2405
29641 C 29.2465 6.64425 110.384 C.2 0 **** 0
29642 C 28.6694 6.55262 111.626 C.2 0 **** 0
29643 C 28.9296 7.59846 112.703 C.3 0 **** -0.106
29644 C 30.1492 8.47667 112.397 C.3 0 **** -0.106
29645 C 30.126 8.93536 110.943 C.3 0 **** -0.106
29646 C 30.2435 7.71338 110.012 C.3 0 **** -0.053
29647 C 30.0564 8.11536 108.525 C.3 0 **** -0.106
29648 C 30.0795 6.88468 107.658 C.2 0 **** 0
29649 C 29.511 5.69184 108.109 C.2 0 **** 0
29650 C 29.5036 4.56849 107.263 C.2 0 **** -0.1268
29651 C 30.0314 4.66834 105.99 C.2 0 **** -0.1268
29652 C 30.5583 5.85876 105.521 C.2 0 **** 0
29653 C 30.5637 6.97481 106.357 C.2 0 **** 0
29654 C 19.9994 -0.807931 119.783 C.3 0 **** -0.106
29655 C 18.9333 0.293551 119.603 C.3 0 **** -0.159
29656 C 18.4368 -3.19851 120.299 C.3 0 **** -0.159
29657 C 21.2093 -0.443921 117.114 C.3 0 **** -0.159
29658 C 18.4166 -5.35177 118.379 C.3 0 **** -0.159
29659 C 19.2534 -6.94209 113.695 C.3 0 **** -0.159
29660 C 19.854 -6.3074 110.965 C.3 0 **** -0.159
29661 O 21.5555 -4.82685 109.514 O.3 0 **** -0.452
29662 C 20.146 -2.13408 105.532 C.3 0 **** -0.159
29663 C 20.7405 0.651529 105.724 C.3 0 **** -0.159
29664 O 24.8765 1.00148 108.083 O.3 0 **** -0.452
29665 O 23.6271 -0.0726369 113.33 O.3 0 **** -0.452
29666 O 25.1254 1.80399 113.982 O.2 0 **** -0.419
29667 O 26.2467 2.93558 108.916 O.2 0 **** -0.419
29668 C 31.101 8.29598 105.833 C.3 0 **** -0.159
29669 C 31.0903 5.89911 104.102 C.3 0 **** -0.159
29670 H 20.651 -1.51923 114.8 H 0 **** 0.053
29671 H 22.1239 -2.37648 115.345 H 0 **** 0.053
29672 H 20.2528 -5.87559 116.175 H 0 **** 0.053
29673 H 18.6136 -5.34855 115.706 H 0 **** 0.053
29674 H 22.1685 -1.48966 113.392 H 0 **** 0.1268
29675 H 22.956 0.788994 107.08 H 0 **** 0.053
29676 H 23.0223 -0.817598 106.341 H 0 **** 0.053
29677 H 20.6274 0.352735 107.844 H 0 **** 0.053
29678 H 19.4749 -1.56663 107.492 H 0 **** 0.053
29679 H 22.0181 -3.08241 106.861 H 0 **** 0.053
29680 H 20.6783 -3.51852 107.925 H 0 **** 0.053
29681 H 26.2911 3.84495 114.537 H 0 **** 0.053
29682 H 27.8886 3.47409 113.865 H 0 **** 0.053
29683 H 27.5275 5.92204 114.037 H 0 **** 0.053
29684 H 26.0292 5.83213 113.108 H 0 **** 0.053
29685 H 28.0393 8.2483 112.804 H 0 **** 0.053
29686 H 29.0925 7.13089 113.691 H 0 **** 0.053
29687 H 31.0781 7.90278 112.578 H 0 **** 0.053
29688 H 30.1822 9.34477 113.082 H 0 **** 0.053
29689 H 30.9473 9.64712 110.733 H 0 **** 0.053
29690 H 29.1809 9.46941 110.735 H 0 **** 0.053
29691 H 31.2752 7.30057 110.13 H 0 **** 0.053
29692 H 29.0833 8.6457 108.412 H 0 **** 0.053
29693 H 30.8463 8.85154 108.261 H 0 **** 0.053
29694 H 29.0764 3.6151 107.598 H 0 **** 0.1268
29695 H 30.0173 3.78598 105.33 H 0 **** 0.1268
29696 H 21.0047 -0.343221 119.784 H 0 **** 0.053
29697 H 19.9125 -1.2223 120.803 H 0 **** 0.053
29698 H 17.9156 -0.127969 119.65 H 0 **** 0.053
29699 H 19.0432 0.805957 118.633 H 0 **** 0.053
29700 H 19.0065 1.06675 120.394 H 0 **** 0.053
29701 H 17.5423 -3.84645 120.216 H 0 **** 0.053
29702 H 18.0449 -2.24251 120.695 H 0 **** 0.053
29703 H 19.0887 -3.63767 121.086 H 0 **** 0.053
29704 H 20.7298 0.0709837 116.252 H 0 **** 0.053
29705 H 22.2604 -0.655711 116.822 H 0 **** 0.053
29706 H 21.2677 0.317338 117.906 H 0 **** 0.053
29707 H 18.7957 -6.2185 117.804 H 0 **** 0.053
29708 H 17.3252 -5.2844 118.174 H 0 **** 0.053
29709 H 18.5355 -5.64589 119.44 H 0 **** 0.053
29710 H 19.5942 -7.78635 113.07 H 0 **** 0.053
29711 H 18.1465 -6.87018 113.591 H 0 **** 0.053
29712 H 19.4568 -7.2779 114.738 H 0 **** 0.053
29713 H 19.4849 -5.7821 110.057 H 0 **** 0.053
29714 H 18.9772 -6.94941 111.253 H 0 **** 0.053
29715 H 20.6594 -7.01411 110.636 H 0 **** 0.053
29716 H 22.1536 -4.54459 108.817 H 0 **** 0.41
29717 H 19.3963 -1.52208 105.013 H 0 **** 0.053
29718 H 19.7547 -3.16843 105.572 H 0 **** 0.053
29719 H 21.0697 -2.15615 104.92 H 0 **** 0.053
29720 H 21.1394 1.6777 105.832 H 0 **** 0.053
29721 H 19.6568 0.734886 105.553 H 0 **** 0.053
29722 H 21.2094 0.216436 104.818 H 0 **** 0.053
29723 H 25.4364 1.79072 108.025 H 0 **** 0.41
29724 H 24.1071 0.54467 113.902 H 0 **** 0.41
29725 H 30.391 9.12386 106.018 H 0 **** 0.053
29726 H 31.2813 8.29954 104.741 H 0 **** 0.053
29727 H 32.0661 8.56505 106.31 H 0 **** 0.053
29728 H 30.5198 6.60274 103.469 H 0 **** 0.053
29729 H 31.0294 4.91414 103.607 H 0 **** 0.053
29730 H 32.1514 6.20235 104.069 H 0 **** 0.053
29731 C 11.1899 70.4868 174.105 C.2 0 **** 0
29732 C 10.8681 69.1534 173.905 C.2 0 **** 0
29733 C 11.5869 68.163 174.555 C.2 0 **** 0
29734 C 12.6047 68.5206 175.405 C.2 0 **** 0
29735 C 12.8962 69.8567 175.651 C.2 0 **** 0
29736 C 12.1781 70.8414 175.005 C.2 0 **** 0
29737 C 13.4232 67.4599 176.113 C.3 0 **** -0.106
29738 C 13.2092 65.9999 175.737 C.2 0 **** 0
29739 C 12.1988 65.6359 174.891 C.2 0 **** 0
29740 C 11.2512 66.6918 174.326 C.3 0 **** -0.106
29741 C 12.0428 64.2906 174.542 C.2 0 **** 0
29742 C 12.9354 63.3309 174.977 C.2 0 **** 0
29743 C 13.898 63.6836 175.916 C.2 0 **** 0
29744 C 14.0563 65.0237 176.29 C.2 0 **** 0
29745 C 15.0538 65.3847 177.183 C.2 0 **** -0.1268
29746 C 16.0241 64.5251 177.654 C.2 0 **** 0
29747 C 15.9192 63.1873 177.132 C.2 0 **** 0
29748 C 14.7606 62.751 176.485 C.2 0 **** 0.042
29749 C 16.9873 62.1397 177.504 C.3 0 **** 0
29750 C 18.1071 62.551 178.464 C.3 0 **** 0
29751 C 18.0003 63.933 179.139 C.2 0 **** 0
29752 C 17.0131 64.8798 178.71 C.2 0 **** 0
29753 C 19.4582 61.851 178.206 C.3 0 **** -0.106
29754 C 19.8308 61.8548 176.72 C.3 0 **** -0.053
29755 C 18.7733 61.1009 175.857 C.3 0 **** -0.053
29756 C 17.3825 60.9985 176.537 C.3 0 **** -0.106
29757 C 16.9478 66.0799 179.446 C.2 0 **** 0.042
29758 C 17.8137 66.3176 180.492 C.2 0 **** 0.052
29759 C 18.7373 65.3646 180.895 C.2 0 **** 0.052
29760 C 18.7826 64.1527 180.258 C.2 0 **** 0.042
29761 C 19.6864 65.5925 182.042 C.2 0 **** 0.367
29762 C 19.5883 66.912 182.733 C.2 0 **** 0
29763 C 18.6892 67.8307 182.36 C.2 0 **** 0
29764 C 17.7466 67.6284 181.234 C.2 0 **** 0.367
29765 C 18.6037 69.1687 183.058 C.3 0 **** -0.106
29766 C 20.0294 69.616 183.467 C.3 0 **** -0.106
29767 C 20.7376 68.5226 184.268 C.2 0 **** 0
29768 C 20.5298 67.1752 183.894 C.2 0 **** 0.2405
29769 N 21.1381 66.1538 184.534 N.2 0 **** -0.481
29770 C 22.0261 66.4488 185.478 C.2 0 **** 0.2405
29771 C 22.2555 67.7737 185.917 C.2 0 **** 0
29772 C 21.5898 68.8063 185.306 C.2 0 **** 0
29773 C 21.8153 70.2545 185.722 C.3 0 **** -0.106
29774 C 22.5103 70.3817 187.083 C.3 0 **** -0.106
29775 C 23.6891 69.4184 187.172 C.3 0 **** -0.106
29776 C 23.1791 67.9669 187.094 C.3 0 **** -0.053
29777 C 24.3552 66.9582 187.013 C.3 0 **** -0.106
29778 C 23.8186 65.5625 186.838 C.2 0 **** 0
29779 C 22.6829 65.3345 186.059 C.2 0 **** 0
29780 C 22.2283 64.0168 185.872 C.2 0 **** -0.1268
29781 C 22.9262 62.9666 186.436 C.2 0 **** -0.1268
29782 C 24.0768 63.1812 187.175 C.2 0 **** 0
29783 C 24.5313 64.4868 187.358 C.2 0 **** 0
29784 C 12.4464 72.2947 175.3 C.3 0 **** -0.106
29785 C 13.6177 72.8281 174.448 C.3 0 **** -0.159
29786 C 10.45 71.5477 173.332 C.3 0 **** -0.159
29787 C 14.0191 70.1693 176.613 C.3 0 **** -0.159
29788 C 9.7415 68.7741 172.976 C.3 0 **** -0.159
29789 C 10.877 63.9304 173.621 C.3 0 **** -0.159
29790 C 12.8023 61.9487 174.383 C.3 0 **** -0.159
29791 O 14.544 61.4086 176.35 O.3 0 **** -0.452
29792 C 19.1647 59.6603 175.522 C.3 0 **** -0.159
29793 C 21.2504 61.2894 176.592 C.3 0 **** -0.159
29794 O 19.5864 63.1251 180.672 O.3 0 **** -0.452
29795 O 16.0161 67.0187 179.144 O.3 0 **** -0.452
29796 O 16.9604 68.468 180.933 O.2 0 **** -0.419
29797 O 20.4978 64.7661 182.343 O.2 0 **** -0.419
29798 C 25.818 64.7257 188.131 C.3 0 **** -0.159
29799 C 24.8056 61.9766 187.736 C.3 0 **** -0.159
29800 H 14.4968 67.6951 175.927 H 0 **** 0.053
29801 H 13.2603 67.5675 177.213 H 0 **** 0.053
29802 H 10.2308 66.504 174.739 H 0 **** 0.053
29803 H 11.1798 66.5278 173.228 H 0 **** 0.053
29804 H 15.0542 66.416 177.455 H 0 **** 0.1268
29805 H 20.2664 62.323 178.767 H 0 **** 0.053
29806 H 19.3438 60.8264 178.567 H 0 **** 0.053
29807 H 19.858 62.9066 176.382 H 0 **** 0.053
29808 H 18.6593 61.659 174.919 H 0 **** 0.053
29809 H 17.3598 60.1065 177.169 H 0 **** 0.053
29810 H 16.6296 60.8631 175.751 H 0 **** 0.053
29811 H 18.1468 69.9512 182.425 H 0 **** 0.053
29812 H 17.9584 69.0622 183.947 H 0 **** 0.053
29813 H 19.9289 70.5673 184.018 H 0 **** 0.053
29814 H 20.6037 69.8591 182.548 H 0 **** 0.053
29815 H 22.4338 70.7625 184.957 H 0 **** 0.053
29816 H 20.8633 70.8125 185.778 H 0 **** 0.053
29817 H 21.7931 70.1471 187.892 H 0 **** 0.053
29818 H 22.8411 71.4233 187.252 H 0 **** 0.053
29819 H 24.258 69.5663 188.11 H 0 **** 0.053
29820 H 24.3909 69.6099 186.34 H 0 **** 0.053
29821 H 22.6124 67.7596 188.034 H 0 **** 0.053
29822 H 25.0066 67.2286 186.151 H 0 **** 0.053
29823 H 24.9795 67.0754 187.926 H 0 **** 0.053
29824 H 21.3299 63.8109 185.277 H 0 **** 0.1268
29825 H 22.5672 61.9363 186.282 H 0 **** 0.1268
29826 H 12.6673 72.4699 176.372 H 0 **** 0.053
29827 H 11.5594 72.9279 175.12 H 0 **** 0.053
29828 H 13.4073 72.7183 173.372 H 0 **** 0.053
29829 H 14.5538 72.2895 174.669 H 0 **** 0.053
29830 H 13.805 73.9038 174.64 H 0 **** 0.053
29831 H 10.1046 71.1964 172.34 H 0 **** 0.053
29832 H 11.0774 72.4307 173.106 H 0 **** 0.053
29833 H 9.55384 71.9141 173.88 H 0 **** 0.053
29834 H 14.9922 69.7667 176.252 H 0 **** 0.053
29835 H 13.8387 69.7276 177.617 H 0 **** 0.053
29836 H 14.199 71.2405 176.788 H 0 **** 0.053
29837 H 9.28589 67.7924 173.21 H 0 **** 0.053
29838 H 10.0818 68.7247 171.917 H 0 **** 0.053
29839 H 8.89882 69.4903 173.019 H 0 **** 0.053
29840 H 10.4738 62.9222 173.822 H 0 **** 0.053
29841 H 11.1686 63.9692 172.546 H 0 **** 0.053
29842 H 9.99656 64.6022 173.74 H 0 **** 0.053
29843 H 13.791 61.5047 174.132 H 0 **** 0.053
29844 H 12.2568 61.9081 173.401 H 0 **** 0.053
29845 H 12.276 61.2256 175.059 H 0 **** 0.053
29846 H 15.0645 60.9339 177.004 H 0 **** 0.41
29847 H 20.0708 59.619 174.903 H 0 **** 0.053
29848 H 18.3559 59.1621 174.954 H 0 **** 0.053
29849 H 19.3361 59.0653 176.44 H 0 **** 0.053
29850 H 21.9693 61.9072 177.163 H 0 **** 0.053
29851 H 21.5844 61.2772 175.544 H 0 **** 0.053
29852 H 21.3166 60.2598 176.997 H 0 **** 0.053
29853 H 20.1741 63.4612 181.366 H 0 **** 0.41
29854 H 16.1373 67.7987 179.706 H 0 **** 0.41
29855 H 26.5083 65.3863 187.573 H 0 **** 0.053
29856 H 26.3925 63.8014 188.332 H 0 **** 0.053
29857 H 25.624 65.1946 189.117 H 0 **** 0.053
29858 H 25.8213 61.8755 187.312 H 0 **** 0.053
29859 H 24.2795 61.0315 187.514 H 0 **** 0.053
29860 H 24.9045 62.0305 188.834 H 0 **** 0.053
29861 C 21.4472 70.4681 129.156 C.2 0 **** 0
29862 C 22.6286 70.1857 129.824 C.2 0 **** 0
29863 C 22.9041 68.8871 130.223 C.2 0 **** 0
29864 C 22.0039 67.8907 129.937 C.2 0 **** 0
29865 C 20.845 68.1573 129.218 C.2 0 **** 0
29866 C 20.574 69.4494 128.818 C.2 0 **** 0
29867 C 22.2651 66.4659 130.383 C.3 0 **** -0.106
29868 C 23.4533 66.192 131.294 C.2 0 **** 0
29869 C 24.3529 67.1785 131.584 C.2 0 **** 0
29870 C 24.1931 68.5706 130.977 C.3 0 **** -0.106
29871 C 25.418 66.9043 132.446 C.2 0 **** 0
29872 C 25.5424 65.6791 133.069 C.2 0 **** 0
29873 C 24.6888 64.648 132.695 C.2 0 **** 0
29874 C 23.6252 64.9001 131.82 C.2 0 **** 0
29875 C 22.7385 63.8859 131.492 C.2 0 **** -0.1268
29876 C 22.7363 62.636 132.076 C.2 0 **** 0
29877 C 23.7529 62.461 133.081 C.2 0 **** 0
29878 C 24.8194 63.3562 133.196 C.2 0 **** 0.042
29879 C 23.8153 61.1438 133.879 C.3 0 **** 0
29880 C 22.8127 60.0387 133.538 C.3 0 **** 0
29881 C 21.9173 60.2409 132.299 C.2 0 **** 0
29882 C 21.8701 61.5091 131.633 C.2 0 **** 0
29883 C 22.3897 59.1677 134.74 C.3 0 **** -0.106
29884 C 22.0418 60.0154 135.967 C.3 0 **** -0.053
29885 C 23.2583 60.8644 136.447 C.3 0 **** -0.053
29886 C 24.3208 61.0989 135.341 C.3 0 **** -0.106
29887 C 21.0829 61.564 130.465 C.2 0 **** 0.042
29888 C 20.3857 60.4579 130.028 C.2 0 **** 0.052
29889 C 20.479 59.2404 130.685 C.2 0 **** 0.052
29890 C 21.294 59.1209 131.779 C.2 0 **** 0.042
29891 C 19.7381 58.0132 130.222 C.2 0 **** 0.367
29892 C 18.8833 58.1717 129.009 C.2 0 **** 0
29893 C 18.8004 59.3394 128.36 C.2 0 **** 0
29894 C 19.5193 60.5599 128.798 C.2 0 **** 0.367
29895 C 17.9237 59.4944 127.139 C.3 0 **** -0.106
29896 C 16.6529 58.6262 127.317 C.3 0 **** -0.106
29897 C 17.0197 57.1824 127.66 C.2 0 **** 0
29898 C 18.1225 56.9544 128.515 C.2 0 **** 0.2405
29899 N 18.4943 55.711 128.886 N.2 0 **** -0.481
29900 C 17.7337 54.6908 128.502 C.2 0 **** 0.2405
29901 C 16.6367 54.8507 127.624 C.2 0 **** 0
29902 C 16.2971 56.1105 127.199 C.2 0 **** 0
29903 C 15.1113 56.3438 126.271 C.3 0 **** -0.106
29904 C 14.6299 55.0592 125.586 C.3 0 **** -0.106
29905 C 14.5378 53.9184 126.594 C.3 0 **** -0.106
29906 C 15.9403 53.6009 127.146 C.3 0 **** -0.053
29907 C 15.8727 52.5614 128.296 C.3 0 **** -0.106
29908 C 17.2465 52.3516 128.875 C.2 0 **** 0
29909 C 18.1371 53.4209 128.987 C.2 0 **** 0
29910 C 19.3975 53.2097 129.574 C.2 0 **** -0.1268
29911 C 19.7252 51.9575 130.057 C.2 0 **** -0.1268
29912 C 18.8317 50.9031 129.988 C.2 0 **** 0
29913 C 17.5801 51.1111 129.409 C.2 0 **** 0
29914 C 19.3479 69.747 127.993 C.3 0 **** -0.106
29915 C 18.109 69.9478 128.891 C.3 0 **** -0.159
29916 C 21.1161 71.8936 128.8 C.3 0 **** -0.159
29917 C 19.9123 67.004 128.928 C.3 0 **** -0.159
29918 C 23.6158 71.2839 130.134 C.3 0 **** -0.159
29919 C 26.4137 68.0285 132.711 C.3 0 **** -0.159
29920 C 26.6073 65.5523 134.133 C.3 0 **** -0.159
29921 O 25.9392 62.9674 133.875 O.3 0 **** -0.452
29922 C 24.0242 60.2403 137.615 C.3 0 **** -0.159
29923 C 21.4819 59.0751 137.041 C.3 0 **** -0.159
29924 O 21.523 57.9274 132.409 O.3 0 **** -0.452
29925 O 21.0105 62.7094 129.741 O.3 0 **** -0.452
29926 O 19.4207 61.5798 128.196 O.2 0 **** -0.419
29927 O 19.8079 56.9859 130.832 O.2 0 **** -0.419
29928 C 16.5784 49.9692 129.37 C.3 0 **** -0.159
29929 C 19.251 49.5668 130.568 C.3 0 **** -0.159
29930 H 21.3515 66.1173 130.918 H 0 **** 0.053
29931 H 22.3649 65.8262 129.472 H 0 **** 0.053
29932 H 25.0497 68.7526 130.284 H 0 **** 0.053
29933 H 24.2935 69.3114 131.801 H 0 **** 0.053
29934 H 22.002 64.1572 130.77 H 0 **** 0.1268
29935 H 21.5301 58.5408 134.496 H 0 **** 0.053
29936 H 23.2385 58.5151 134.956 H 0 **** 0.053
29937 H 21.234 60.7113 135.678 H 0 **** 0.053
29938 H 22.8701 61.8406 136.766 H 0 **** 0.053
29939 H 25.0271 60.2639 135.342 H 0 **** 0.053
29940 H 24.8831 62.005 135.597 H 0 **** 0.053
29941 H 17.6236 60.5429 126.96 H 0 **** 0.053
29942 H 18.4952 59.1714 126.252 H 0 **** 0.053
29943 H 16.0602 58.7197 126.39 H 0 **** 0.053
29944 H 16.0279 59.0709 128.12 H 0 **** 0.053
29945 H 14.2723 56.7741 126.851 H 0 **** 0.053
29946 H 15.3544 57.0753 125.48 H 0 **** 0.053
29947 H 15.3391 54.7744 124.785 H 0 **** 0.053
29948 H 13.6545 55.2264 125.092 H 0 **** 0.053
29949 H 14.101 53.0113 126.134 H 0 **** 0.053
29950 H 13.8693 54.2084 127.424 H 0 **** 0.053
29951 H 16.5352 53.1533 126.313 H 0 **** 0.053
29952 H 15.1789 52.9356 129.083 H 0 **** 0.053
29953 H 15.419 51.6281 127.897 H 0 **** 0.053
29954 H 20.1222 54.0289 129.66 H 0 **** 0.1268
29955 H 20.7128 51.7999 130.52 H 0 **** 0.1268
29956 H 19.1359 68.948 127.256 H 0 **** 0.053
29957 H 19.4772 70.6437 127.361 H 0 **** 0.053
29958 H 18.2652 70.7735 129.605 H 0 **** 0.053
29959 H 17.8805 69.0384 129.471 H 0 **** 0.053
29960 H 17.2071 70.1932 128.295 H 0 **** 0.053
29961 H 21.5556 72.6283 129.502 H 0 **** 0.053
29962 H 20.031 72.1017 128.828 H 0 **** 0.053
29963 H 21.4536 72.1558 127.777 H 0 **** 0.053
29964 H 19.5228 66.5478 129.865 H 0 **** 0.053
29965 H 20.4194 66.1949 128.359 H 0 **** 0.053
29966 H 19.018 67.264 128.342 H 0 **** 0.053
29967 H 24.6563 70.9253 130.248 H 0 **** 0.053
29968 H 23.3544 71.8208 131.071 H 0 **** 0.053
29969 H 23.6736 72.0365 129.331 H 0 **** 0.053
29970 H 27.435 67.6495 132.891 H 0 **** 0.053
29971 H 26.1201 68.6473 133.59 H 0 **** 0.053
29972 H 26.5273 68.7258 131.85 H 0 **** 0.053
29973 H 26.2447 64.9894 135.021 H 0 **** 0.053
29974 H 26.9471 66.5262 134.58 H 0 **** 0.053
29975 H 27.5355 65.0379 133.771 H 0 **** 0.053
29976 H 25.9739 62.0077 133.912 H 0 **** 0.41
29977 H 23.4001 60.1633 138.515 H 0 **** 0.053
29978 H 24.9031 60.8597 137.876 H 0 **** 0.053
29979 H 24.3992 59.2303 137.357 H 0 **** 0.053
29980 H 20.577 58.5564 136.673 H 0 **** 0.053
29981 H 21.1989 59.6275 137.95 H 0 **** 0.053
29982 H 22.2142 58.2905 137.318 H 0 **** 0.053
29983 H 20.9229 57.2663 132.032 H 0 **** 0.41
29984 H 20.3968 62.5956 129 H 0 **** 0.41
29985 H 15.5919 50.282 129.761 H 0 **** 0.053
29986 H 16.8756 49.0973 129.984 H 0 **** 0.053
29987 H 16.4287 49.5888 128.339 H 0 **** 0.053
29988 H 18.6082 49.2654 131.415 H 0 **** 0.053
29989 H 20.2856 49.5868 130.953 H 0 **** 0.053
29990 H 19.2123 48.7611 129.814 H 0 **** 0.053
29991 C 22.3158 57.9955 163.528 C.2 0 **** 0
29992 C 21.9348 59.3122 163.323 C.2 0 **** 0
29993 C 22.2863 59.9592 162.149 C.2 0 **** 0
29994 C 22.9942 59.2762 161.192 C.2 0 **** 0
29995 C 23.3325 57.94 161.368 C.2 0 **** 0
29996 C 22.9821 57.297 162.537 C.2 0 **** 0
29997 C 23.4115 59.9631 159.907 C.3 0 **** -0.106
29998 C 23.1904 61.4628 159.779 C.2 0 **** 0
29999 C 22.5014 62.1494 160.738 C.2 0 **** 0
30000 C 21.8947 61.4157 161.93 C.3 0 **** -0.106
30001 C 22.3691 63.5361 160.628 C.2 0 **** 0
30002 C 22.9396 64.2314 159.577 C.2 0 **** 0
30003 C 23.5368 63.5175 158.543 C.2 0 **** 0
30004 C 23.6928 62.1312 158.649 C.2 0 **** 0
30005 C 24.3582 61.4293 157.656 C.2 0 **** -0.1268
30006 C 25.0157 62.0177 156.596 C.2 0 **** 0
30007 C 24.9475 63.4549 156.592 C.2 0 **** 0
30008 C 24.0394 64.1371 157.405 C.2 0 **** 0.042
30009 C 25.7097 64.2535 155.517 C.3 0 **** 0
30010 C 26.4882 63.4773 154.451 C.3 0 **** 0
30011 C 26.3124 61.9461 154.41 C.2 0 **** 0
30012 C 25.632 61.2617 155.471 C.2 0 **** 0
30013 C 27.7659 64.1843 153.949 C.3 0 **** -0.106
30014 C 28.6087 64.7367 155.102 C.3 0 **** -0.053
30015 C 27.8211 65.7911 155.938 C.3 0 **** -0.053
30016 C 26.2807 65.6652 155.797 C.3 0 **** -0.106
30017 C 25.4594 59.8737 155.299 C.2 0 **** 0.042
30018 C 25.9489 59.2323 154.181 C.2 0 **** 0.052
30019 C 26.5762 59.9341 153.163 C.2 0 **** 0.052
30020 C 26.699 61.2951 153.253 C.2 0 **** 0.042
30021 C 27.1105 59.26 151.928 C.2 0 **** 0.367
30022 C 26.9356 57.7799 151.85 C.2 0 **** 0
30023 C 26.3172 57.0979 152.821 C.2 0 **** 0
30024 C 25.784 57.7406 154.046 C.2 0 **** 0.367
30025 C 26.1535 55.5972 152.741 C.3 0 **** -0.106
30026 C 27.4027 54.9883 152.055 C.3 0 **** -0.106
30027 C 27.6819 55.6738 150.718 C.2 0 **** 0
30028 C 27.4631 57.0669 150.618 C.2 0 **** 0.2405
30029 N 27.71 57.7494 149.479 N.2 0 **** -0.481
30030 C 28.2622 57.0921 148.464 C.2 0 **** 0.2405
30031 C 28.4765 55.6944 148.492 C.2 0 **** 0
30032 C 28.1677 54.992 149.63 C.2 0 **** 0
30033 C 28.3991 53.4888 149.723 C.3 0 **** -0.106
30034 C 28.6129 52.8328 148.353 C.3 0 **** -0.106
30035 C 29.5831 53.6561 147.513 C.3 0 **** -0.106
30036 C 28.9732 55.0415 147.226 C.3 0 **** -0.053
30037 C 29.9923 55.9718 146.517 C.3 0 **** -0.106
30038 C 29.3954 57.343 146.343 C.2 0 **** 0
30039 C 28.5643 57.8821 147.327 C.2 0 **** 0
30040 C 28.0569 59.1836 147.163 C.2 0 **** -0.1268
30041 C 28.4098 59.9195 146.049 C.2 0 **** -0.1268
30042 C 29.2667 59.4079 145.09 C.2 0 **** 0
30043 C 29.7738 58.1188 145.252 C.2 0 **** 0
30044 C 23.295 55.8347 162.722 C.3 0 **** -0.106
30045 C 24.7331 55.6347 163.245 C.3 0 **** -0.159
30046 C 21.9954 57.3311 164.841 C.3 0 **** -0.159
30047 C 24.1017 57.2547 160.262 C.3 0 **** -0.159
30048 C 21.1468 60.0492 164.378 C.3 0 **** -0.159
30049 C 21.5068 64.2494 161.674 C.3 0 **** -0.159
30050 C 22.8299 65.7374 159.611 C.3 0 **** -0.159
30051 O 23.7399 65.4354 157.112 O.3 0 **** -0.452
30052 C 28.1433 67.2395 155.564 C.3 0 **** -0.159
30053 C 29.9202 65.2688 154.512 C.3 0 **** -0.159
30054 O 27.2083 62.0642 152.242 O.3 0 **** -0.452
30055 O 24.7938 59.1458 156.231 O.3 0 **** -0.452
30056 O 25.2377 57.1007 154.885 O.2 0 **** -0.419
30057 O 27.6827 59.8852 151.083 O.2 0 **** -0.419
30058 C 30.7497 57.5681 144.225 C.3 0 **** -0.159
30059 C 29.6326 60.2867 143.911 C.3 0 **** -0.159
30060 H 24.5051 59.7855 159.782 H 0 **** 0.053
30061 H 22.9066 59.4506 159.051 H 0 **** 0.053
30062 H 20.7834 61.4654 161.852 H 0 **** 0.053
30063 H 22.1676 61.983 162.847 H 0 **** 0.053
30064 H 24.3799 60.3724 157.797 H 0 **** 0.1268
30065 H 28.3885 63.5113 153.356 H 0 **** 0.053
30066 H 27.4285 64.9967 153.301 H 0 **** 0.053
30067 H 28.8605 63.8928 155.77 H 0 **** 0.053
30068 H 28.0865 65.6365 156.992 H 0 **** 0.053
30069 H 25.9535 66.2499 154.933 H 0 **** 0.053
30070 H 25.8224 66.1113 156.688 H 0 **** 0.053
30071 H 26.0208 55.1283 153.733 H 0 **** 0.053
30072 H 25.2426 55.3733 152.159 H 0 **** 0.053
30073 H 27.2296 53.9021 151.964 H 0 **** 0.053
30074 H 28.2723 55.098 152.738 H 0 **** 0.053
30075 H 29.2875 53.2937 150.354 H 0 **** 0.053
30076 H 27.549 52.9777 150.21 H 0 **** 0.053
30077 H 27.6469 52.7606 147.818 H 0 **** 0.053
30078 H 28.98 51.7965 148.474 H 0 **** 0.053
30079 H 29.8213 53.1462 146.56 H 0 **** 0.053
30080 H 30.5376 53.7769 148.057 H 0 **** 0.053
30081 H 28.1078 54.8899 146.536 H 0 **** 0.053
30082 H 30.9181 56.0326 147.133 H 0 **** 0.053
30083 H 30.2874 55.4982 145.555 H 0 **** 0.053
30084 H 27.3899 59.6256 147.914 H 0 **** 0.1268
30085 H 28.0123 60.9403 145.929 H 0 **** 0.1268
30086 H 23.1662 55.2583 161.785 H 0 **** 0.053
30087 H 22.5928 55.3433 163.418 H 0 **** 0.053
30088 H 24.8811 56.1531 164.207 H 0 **** 0.053
30089 H 25.4789 56.0239 162.533 H 0 **** 0.053
30090 H 24.9632 54.5629 163.41 H 0 **** 0.053
30091 H 21.9633 58.044 165.689 H 0 **** 0.053
30092 H 22.7552 56.5848 165.142 H 0 **** 0.053
30093 H 21.0138 56.8085 164.816 H 0 **** 0.053
30094 H 25.0897 57.7384 160.09 H 0 **** 0.053
30095 H 23.5531 57.2849 159.296 H 0 **** 0.053
30096 H 24.33 56.1938 160.443 H 0 **** 0.053
30097 H 20.5353 60.8799 163.975 H 0 **** 0.053
30098 H 21.8121 60.4884 165.155 H 0 **** 0.053
30099 H 20.421 59.3945 164.897 H 0 **** 0.053
30100 H 20.947 65.107 161.255 H 0 **** 0.053
30101 H 22.1113 64.6254 162.526 H 0 **** 0.053
30102 H 20.7043 63.6026 162.103 H 0 **** 0.053
30103 H 23.7806 66.2312 159.313 H 0 **** 0.053
30104 H 22.6263 66.171 160.626 H 0 **** 0.053
30105 H 22.0255 66.1395 158.94 H 0 **** 0.053
30106 H 23.9473 65.606 156.19 H 0 **** 0.41
30107 H 29.1934 67.4885 155.768 H 0 **** 0.053
30108 H 27.5197 67.9389 156.152 H 0 **** 0.053
30109 H 27.935 67.4348 154.493 H 0 **** 0.053
30110 H 30.4722 64.4607 153.996 H 0 **** 0.053
30111 H 30.5796 65.6705 155.296 H 0 **** 0.053
30112 H 29.7364 66.0641 153.762 H 0 **** 0.053
30113 H 27.5591 61.4711 151.561 H 0 **** 0.41
30114 H 24.8025 58.2085 155.987 H 0 **** 0.41
30115 H 31.6532 57.151 144.708 H 0 **** 0.053
30116 H 31.1206 58.3293 143.513 H 0 **** 0.053
30117 H 30.2916 56.7638 143.613 H 0 **** 0.053
30118 H 30.7141 60.5138 143.886 H 0 **** 0.053
30119 H 29.1104 61.2592 143.939 H 0 **** 0.053
30120 H 29.367 59.8153 142.948 H 0 **** 0.053
30121 C 26.6385 40.3633 189.461 C.2 0 **** 0
30122 C 27.6579 40.5041 190.389 C.2 0 **** 0
30123 C 28.6591 39.5494 190.469 C.2 0 **** 0
30124 C 28.6343 38.4785 189.61 C.2 0 **** 0
30125 C 27.6463 38.3603 188.64 C.2 0 **** 0
30126 C 26.6516 39.3128 188.561 C.2 0 **** 0
30127 C 29.7025 37.4063 189.688 C.3 0 **** -0.106
30128 C 30.7001 37.4501 190.837 C.2 0 **** 0
30129 C 30.7304 38.5125 191.697 C.2 0 **** 0
30130 C 29.7742 39.6871 191.502 C.3 0 **** -0.106
30131 C 31.6394 38.5133 192.759 C.2 0 **** 0
30132 C 32.457 37.4273 193.002 C.2 0 **** 0
30133 C 32.4983 36.395 192.072 C.2 0 **** 0
30134 C 31.607 36.3875 190.992 C.2 0 **** 0
30135 C 31.6083 35.3298 190.095 C.2 0 **** -0.1268
30136 C 32.3504 34.1775 190.253 C.2 0 **** 0
30137 C 33.1443 34.1566 191.453 C.2 0 **** 0
30138 C 33.3761 35.3214 192.189 C.2 0 **** 0.042
30139 C 33.959 32.8958 191.805 C.3 0 **** 0
30140 C 33.9309 31.7159 190.83 C.3 0 **** 0
30141 C 33.2341 31.9264 189.471 C.2 0 **** 0
30142 C 32.4504 33.1018 189.228 C.2 0 **** 0
30143 C 34.0521 30.3305 191.5 C.3 0 **** -0.106
30144 C 33.1301 30.1998 192.716 C.3 0 **** -0.053
30145 C 33.4728 31.2512 193.814 C.3 0 **** -0.053
30146 C 34.237 32.4868 193.271 C.3 0 **** -0.106
30147 C 31.9239 33.2344 187.927 C.2 0 **** 0.042
30148 C 32.1384 32.2625 186.973 C.2 0 **** 0.052
30149 C 32.9258 31.1522 187.239 C.2 0 **** 0.052
30150 C 33.5224 31.0218 188.465 C.2 0 **** 0.042
30151 C 33.1874 30.082 186.212 C.2 0 **** 0.367
30152 C 32.5471 30.2719 184.877 C.2 0 **** 0
30153 C 31.7985 31.3482 184.608 C.2 0 **** 0
30154 C 31.527 32.4131 185.603 C.2 0 **** 0.367
30155 C 31.1446 31.5276 183.257 C.3 0 **** -0.106
30156 C 30.7124 30.1409 182.718 C.3 0 **** -0.106
30157 C 31.8829 29.1575 182.735 C.2 0 **** 0
30158 C 32.7905 29.212 183.817 C.2 0 **** 0.2405
30159 N 33.8353 28.3629 183.918 N.2 0 **** -0.481
30160 C 33.9414 27.3936 183.014 C.2 0 **** 0.2405
30161 C 33.0838 27.3043 181.893 C.2 0 **** 0
30162 C 32.0594 28.2076 181.76 C.2 0 **** 0
30163 C 31.0917 28.1444 180.585 C.3 0 **** -0.106
30164 C 31.6091 27.2731 179.434 C.3 0 **** -0.106
30165 C 32.173 25.9611 179.969 C.3 0 **** -0.106
30166 C 33.3954 26.2487 180.862 C.3 0 **** -0.053
30167 C 33.8999 24.9591 181.562 C.3 0 **** -0.106
30168 C 35.0293 25.2965 182.498 C.2 0 **** 0
30169 C 35.0159 26.4917 183.219 C.2 0 **** 0
30170 C 36.0582 26.7625 184.124 C.2 0 **** -0.1268
30171 C 37.0632 25.8324 184.307 C.2 0 **** -0.1268
30172 C 37.0611 24.6272 183.627 C.2 0 **** 0
30173 C 36.0264 24.3551 182.732 C.2 0 **** 0
30174 C 25.6023 39.2277 187.482 C.3 0 **** -0.106
30175 C 24.4439 38.2999 187.906 C.3 0 **** -0.159
30176 C 25.5163 41.3685 189.439 C.3 0 **** -0.159
30177 C 27.6982 37.1619 187.72 C.3 0 **** -0.159
30178 C 27.6779 41.6904 191.322 C.3 0 **** -0.159
30179 C 31.6575 39.7397 193.672 C.3 0 **** -0.159
30180 C 33.2517 37.4381 194.286 C.3 0 **** -0.159
30181 O 34.4167 35.3481 193.075 O.3 0 **** -0.452
30182 C 34.3489 30.7004 194.939 C.3 0 **** -0.159
30183 C 33.2025 28.7482 193.206 C.3 0 **** -0.159
30184 O 34.4019 30.0153 188.76 O.3 0 **** -0.452
30185 O 31.2064 34.3347 187.588 O.3 0 **** -0.452
30186 O 30.8585 33.3559 185.326 O.2 0 **** -0.419
30187 O 33.8413 29.1164 186.481 O.2 0 **** -0.419
30188 C 35.994 23.015 182.017 C.3 0 **** -0.159
30189 C 38.1801 23.6435 183.905 C.3 0 **** -0.159
30190 H 29.1779 36.4243 189.742 H 0 **** 0.053
30191 H 30.2728 37.4094 188.727 H 0 **** 0.053
30192 H 30.3767 40.5897 191.238 H 0 **** 0.053
30193 H 29.3002 39.9029 192.485 H 0 **** 0.053
30194 H 30.9399 35.4449 189.272 H 0 **** 0.1268
30195 H 33.819 29.5264 190.799 H 0 **** 0.053
30196 H 35.0968 30.229 191.802 H 0 **** 0.053
30197 H 32.0954 30.3873 192.376 H 0 **** 0.053
30198 H 32.5236 31.5934 194.247 H 0 **** 0.053
30199 H 35.3097 32.2741 193.279 H 0 **** 0.053
30200 H 34.0628 33.3232 193.959 H 0 **** 0.053
30201 H 30.2621 32.1919 183.295 H 0 **** 0.053
30202 H 31.8701 32.0025 182.574 H 0 **** 0.053
30203 H 30.2863 30.2988 181.712 H 0 **** 0.053
30204 H 29.8759 29.7616 183.343 H 0 **** 0.053
30205 H 30.1219 27.7379 180.932 H 0 **** 0.053
30206 H 30.8832 29.1499 180.177 H 0 **** 0.053
30207 H 32.4073 27.8102 178.887 H 0 **** 0.053
30208 H 30.8033 27.0831 178.7 H 0 **** 0.053
30209 H 32.4613 25.282 179.144 H 0 **** 0.053
30210 H 31.3992 25.436 180.559 H 0 **** 0.053
30211 H 34.2133 26.6229 180.199 H 0 **** 0.053
30212 H 33.0573 24.5001 182.127 H 0 **** 0.053
30213 H 34.1862 24.2248 180.777 H 0 **** 0.053
30214 H 36.0787 27.6999 184.694 H 0 **** 0.1268
30215 H 37.8729 26.0487 185.022 H 0 **** 0.1268
30216 H 26.0196 38.8714 186.52 H 0 **** 0.053
30217 H 25.1871 40.2183 187.225 H 0 **** 0.053
30218 H 23.9697 38.6564 188.835 H 0 **** 0.053
30219 H 24.796 37.2698 188.079 H 0 **** 0.053
30220 H 23.6539 38.2515 187.13 H 0 **** 0.053
30221 H 25.3106 41.8062 190.436 H 0 **** 0.053
30222 H 24.5498 40.9265 189.131 H 0 **** 0.053
30223 H 25.7263 42.2135 188.747 H 0 **** 0.053
30224 H 27.6044 36.2081 188.287 H 0 **** 0.053
30225 H 28.6556 37.1128 187.158 H 0 **** 0.053
30226 H 26.9038 37.1233 186.96 H 0 **** 0.053
30227 H 28.6902 41.948 191.689 H 0 **** 0.053
30228 H 27.0464 41.5158 192.221 H 0 **** 0.053
30229 H 27.3129 42.6156 190.837 H 0 **** 0.053
30230 H 32.6611 39.9473 194.083 H 0 **** 0.053
30231 H 30.9567 39.6291 194.531 H 0 **** 0.053
30232 H 31.3788 40.6832 193.15 H 0 **** 0.053
30233 H 33.2504 36.4446 194.787 H 0 **** 0.053
30234 H 32.8472 38.1177 195.085 H 0 **** 0.053
30235 H 34.323 37.7352 194.142 H 0 **** 0.053
30236 H 35.0518 34.6658 192.842 H 0 **** 0.41
30237 H 33.8352 29.9053 195.492 H 0 **** 0.053
30238 H 34.5968 31.5015 195.659 H 0 **** 0.053
30239 H 35.3044 30.299 194.549 H 0 **** 0.053
30240 H 32.877 28.0516 192.41 H 0 **** 0.053
30241 H 32.5489 28.585 194.076 H 0 **** 0.053
30242 H 34.237 28.4627 193.482 H 0 **** 0.053
30243 H 34.3982 29.3848 188.025 H 0 **** 0.41
30244 H 30.8747 34.2483 186.681 H 0 **** 0.41
30245 H 35.0041 22.5301 182.109 H 0 **** 0.053
30246 H 36.72 22.281 182.416 H 0 **** 0.053
30247 H 36.2186 23.1213 180.935 H 0 **** 0.053
30248 H 37.8015 22.7035 184.346 H 0 **** 0.053
30249 H 38.9208 24.0464 184.617 H 0 **** 0.053
30250 H 38.7359 23.383 182.987 H 0 **** 0.053
30251 C 41.3045 90.4222 100.693 C.2 0 **** 0
30252 C 41.057 89.0719 100.501 C.2 0 **** 0
30253 C 42.1131 88.1935 100.319 C.2 0 **** 0
30254 C 43.3985 88.6749 100.347 C.2 0 **** 0
30255 C 43.6557 90.0181 100.594 C.2 0 **** 0
30256 C 42.6034 90.8909 100.777 C.2 0 **** 0
30257 C 44.5732 87.7426 100.129 C.3 0 **** -0.106
30258 C 44.2973 86.3039 99.7138 C.2 0 **** 0
30259 C 43.0201 85.8173 99.6833 C.2 0 **** 0
30260 C 41.848 86.7082 100.089 C.3 0 **** -0.106
30261 C 42.7942 84.4996 99.2729 C.2 0 **** 0
30262 C 43.8292 83.702 98.8264 C.2 0 **** 0
30263 C 45.1353 84.1607 98.954 C.2 0 **** 0
30264 C 45.3799 85.4721 99.3796 C.2 0 **** 0
30265 C 46.6798 85.9494 99.4525 C.2 0 **** -0.1268
30266 C 47.7875 85.2623 99.0009 C.2 0 **** 0
30267 C 47.4812 83.9756 98.4316 C.2 0 **** 0
30268 C 46.2364 83.3728 98.6309 C.2 0 **** 0.042
30269 C 48.6102 83.132 97.8069 C.3 0 **** 0
30270 C 50.0395 83.6781 97.8571 C.3 0 **** 0
30271 C 50.2904 84.9535 98.6862 C.2 0 **** 0
30272 C 49.1913 85.719 99.1969 C.2 0 **** 0
30273 C 50.9182 83.2804 96.6521 C.3 0 **** -0.106
30274 C 50.1868 83.4764 95.3204 C.3 0 **** -0.053
30275 C 48.8998 82.6006 95.2344 C.3 0 **** -0.053
30276 C 48.3504 82.1724 96.6208 C.3 0 **** -0.106
30277 C 49.5305 86.8204 100.008 C.2 0 **** 0.042
30278 C 50.8488 87.1389 100.256 C.2 0 **** 0.052
30279 C 51.884 86.357 99.7666 C.2 0 **** 0.052
30280 C 51.5987 85.2325 99.0383 C.2 0 **** 0.042
30281 C 53.3325 86.6745 100.032 C.2 0 **** 0.367
30282 C 53.606 87.8896 100.855 C.2 0 **** 0
30283 C 52.612 88.6403 101.344 C.2 0 **** 0
30284 C 51.18 88.3476 101.094 C.2 0 **** 0.367
30285 C 52.8978 89.8755 102.167 C.3 0 **** -0.106
30286 C 54.1765 90.5601 101.622 C.3 0 **** -0.106
30287 C 55.3356 89.5668 101.538 C.2 0 **** 0
30288 C 55.0553 88.2391 101.142 C.2 0 **** 0.2405
30289 N 56.0266 87.3098 101.018 N.2 0 **** -0.481
30290 C 57.2868 87.6967 101.187 C.2 0 **** 0.2405
30291 C 57.629 89.0014 101.613 C.2 0 **** 0
30292 C 56.6341 89.9285 101.797 C.2 0 **** 0
30293 C 56.947 91.3549 102.232 C.3 0 **** -0.106
30294 C 58.3631 91.5069 102.8 C.3 0 **** -0.106
30295 C 59.3747 90.7902 101.912 C.3 0 **** -0.106
30296 C 59.0819 89.2777 101.91 C.3 0 **** -0.053
30297 C 59.9808 88.5297 100.89 C.3 0 **** -0.106
30298 C 59.5983 87.0742 100.845 C.2 0 **** 0
30299 C 58.2619 86.6905 100.971 C.2 0 **** 0
30300 C 57.9241 85.3284 100.879 C.2 0 **** -0.1268
30301 C 58.9125 84.3942 100.636 C.2 0 **** -0.1268
30302 C 60.2333 84.771 100.467 C.2 0 **** 0
30303 C 60.5699 86.1216 100.555 C.2 0 **** 0
30304 C 42.8655 92.3402 101.097 C.3 0 **** -0.106
30305 C 43.0979 93.1598 99.8103 C.3 0 **** -0.159
30306 C 40.1437 91.3752 100.813 C.3 0 **** -0.159
30307 C 45.0985 90.4672 100.626 C.3 0 **** -0.159
30308 C 39.6395 88.5541 100.483 C.3 0 **** -0.159
30309 C 41.352 83.9925 99.2896 C.3 0 **** -0.159
30310 C 43.458 82.3723 98.2136 C.3 0 **** -0.159
30311 O 46.1108 82.0285 98.4203 O.3 0 **** -0.452
30312 C 49.092 81.2967 94.4572 C.3 0 **** -0.159
30313 C 51.1914 83.2132 94.1921 C.3 0 **** -0.159
30314 O 52.5612 84.3535 98.6204 O.3 0 **** -0.452
30315 O 48.5584 87.5802 100.572 O.3 0 **** -0.452
30316 O 50.3249 89.0387 101.546 O.2 0 **** -0.419
30317 O 54.2055 86.0033 99.5635 O.2 0 **** -0.419
30318 C 62.0109 86.5462 100.327 C.3 0 **** -0.159
30319 C 61.2562 83.6922 100.173 C.3 0 **** -0.159
30320 H 45.2109 88.1988 99.3366 H 0 **** 0.053
30321 H 45.187 87.7279 101.063 H 0 **** 0.053
30322 H 41.3976 86.2914 101.022 H 0 **** 0.053
30323 H 41.0696 86.6221 99.2991 H 0 **** 0.053
30324 H 46.7687 86.9355 99.8496 H 0 **** 0.1268
30325 H 51.8455 83.8557 96.6268 H 0 **** 0.053
30326 H 51.1725 82.2278 96.7952 H 0 **** 0.053
30327 H 49.8821 84.5365 95.2566 H 0 **** 0.053
30328 H 48.131 83.1986 94.7273 H 0 **** 0.053
30329 H 48.8429 81.2455 96.9282 H 0 **** 0.053
30330 H 47.2811 81.9552 96.5105 H 0 **** 0.053
30331 H 52.064 90.6009 102.151 H 0 **** 0.053
30332 H 53.0359 89.5733 103.22 H 0 **** 0.053
30333 H 54.3871 91.426 102.273 H 0 **** 0.053
30334 H 53.9534 90.984 100.62 H 0 **** 0.053
30335 H 56.8363 92.034 101.364 H 0 **** 0.053
30336 H 56.237 91.7084 103.001 H 0 **** 0.053
30337 H 58.4065 91.0718 103.817 H 0 **** 0.053
30338 H 58.624 92.5762 102.908 H 0 **** 0.053
30339 H 60.4108 90.9714 102.256 H 0 **** 0.053
30340 H 59.3086 91.1818 100.881 H 0 **** 0.053
30341 H 59.3216 88.8883 102.929 H 0 **** 0.053
30342 H 59.8502 88.9909 99.8845 H 0 **** 0.053
30343 H 61.043 88.6939 101.174 H 0 **** 0.053
30344 H 56.8838 84.9981 100.99 H 0 **** 0.1268
30345 H 58.6404 83.329 100.56 H 0 **** 0.1268
30346 H 43.7345 92.4687 101.772 H 0 **** 0.053
30347 H 42.0365 92.7987 101.665 H 0 **** 0.053
30348 H 42.2271 93.0961 99.137 H 0 **** 0.053
30349 H 43.9801 92.7985 99.257 H 0 **** 0.053
30350 H 43.2653 94.2326 100.033 H 0 **** 0.053
30351 H 39.2536 91.0434 100.244 H 0 **** 0.053
30352 H 40.3691 92.3794 100.406 H 0 **** 0.053
30353 H 39.8245 91.5131 101.87 H 0 **** 0.053
30354 H 45.6022 90.2942 99.6488 H 0 **** 0.053
30355 H 45.685 89.9197 101.395 H 0 **** 0.053
30356 H 45.2491 91.5354 100.842 H 0 **** 0.053
30357 H 39.5548 87.4867 100.764 H 0 **** 0.053
30358 H 39.1789 88.6576 99.4751 H 0 **** 0.053
30359 H 38.9866 89.085 101.201 H 0 **** 0.053
30360 H 41.2852 82.912 99.5073 H 0 **** 0.053
30361 H 40.8361 84.175 98.3191 H 0 **** 0.053
30362 H 40.7267 84.4668 100.08 H 0 **** 0.053
30363 H 44.0528 82.1534 97.2992 H 0 **** 0.053
30364 H 42.3995 82.3045 97.8418 H 0 **** 0.053
30365 H 43.5961 81.5079 98.9141 H 0 **** 0.053
30366 H 46.978 81.6168 98.4574 H 0 **** 0.41
30367 H 49.3407 81.484 93.404 H 0 **** 0.053
30368 H 48.1627 80.6962 94.4735 H 0 **** 0.053
30369 H 49.8926 80.6753 94.9047 H 0 **** 0.053
30370 H 52.0459 83.9126 94.2593 H 0 **** 0.053
30371 H 50.7289 83.3508 93.2033 H 0 **** 0.053
30372 H 51.6078 82.1877 94.2486 H 0 **** 0.053
30373 H 53.4287 84.7416 98.8104 H 0 **** 0.41
30374 H 48.954 88.318 101.06 H 0 **** 0.41
30375 H 62.079 87.372 99.5944 H 0 **** 0.053
30376 H 62.6524 85.7398 99.9231 H 0 **** 0.053
30377 H 62.4925 86.8873 101.267 H 0 **** 0.053
30378 H 61.7223 83.8269 99.1794 H 0 **** 0.053
30379 H 60.8083 82.6829 100.173 H 0 **** 0.053
30380 H 62.0655 83.6764 100.924 H 0 **** 0.053
30381 C 9.05184 45.1166 155.205 C.2 0 **** 0
30382 C 8.49992 45.3289 153.951 C.2 0 **** 0
30383 C 7.92495 46.5521 153.646 C.2 0 **** 0
30384 C 7.92384 47.5475 154.591 C.2 0 **** 0
30385 C 8.52465 47.36 155.83 C.2 0 **** 0
30386 C 9.09874 46.1424 156.132 C.2 0 **** 0
30387 C 7.28249 48.8882 154.295 C.3 0 **** -0.106
30388 C 6.49644 49.0526 153.001 C.2 0 **** 0
30389 C 6.49168 48.0657 152.055 C.2 0 **** 0
30390 C 7.29765 46.7871 152.274 C.3 0 **** -0.106
30391 C 5.73884 48.2328 150.889 C.2 0 **** 0
30392 C 4.93964 49.344 150.706 C.2 0 **** 0
30393 C 5.02422 50.3902 151.618 C.2 0 **** 0
30394 C 5.78746 50.2464 152.782 C.2 0 **** 0
30395 C 5.82653 51.2673 153.72 C.2 0 **** -0.1268
30396 C 5.04693 52.4041 153.665 C.2 0 **** 0
30397 C 4.16393 52.4494 152.529 C.2 0 **** 0
30398 C 4.33569 51.5871 151.443 C.2 0 **** 0.042
30399 C 3.17116 53.6197 152.383 C.3 0 **** 0
30400 C 3.19288 54.7282 153.439 C.3 0 **** 0
30401 C 4.32478 54.6988 154.485 C.2 0 **** 0
30402 C 5.18249 53.5559 154.6 C.2 0 **** 0
30403 C 1.81865 55.3746 153.714 C.3 0 **** -0.106
30404 C 0.715957 54.3251 153.885 C.3 0 **** -0.053
30405 C 0.54315 53.4544 152.603 C.3 0 **** -0.053
30406 C 1.79794 53.4434 151.691 C.3 0 **** -0.106
30407 C 6.23397 53.6641 155.532 C.2 0 **** 0.042
30408 C 6.38876 54.8005 156.297 C.2 0 **** 0.052
30409 C 5.55427 55.8965 156.138 C.2 0 **** 0.052
30410 C 4.56725 55.8651 155.188 C.2 0 **** 0.042
30411 C 5.70787 57.1546 156.951 C.2 0 **** 0.367
30412 C 6.81265 57.1658 157.955 C.2 0 **** 0
30413 C 7.63171 56.1178 158.104 C.2 0 **** 0
30414 C 7.49864 54.8694 157.315 C.2 0 **** 0.367
30415 C 8.74111 56.1327 159.131 C.3 0 **** -0.106
30416 C 8.26159 56.9127 160.38 C.3 0 **** -0.106
30417 C 7.73031 58.2933 159.994 C.2 0 **** 0
30418 C 6.99624 58.4187 158.793 C.2 0 **** 0.2405
30419 N 6.47169 59.5974 158.394 N.2 0 **** -0.481
30420 C 6.58054 60.6379 159.214 C.2 0 **** 0.2405
30421 C 7.32746 60.5837 160.414 C.2 0 **** 0
30422 C 7.9109 59.3989 160.787 C.2 0 **** 0
30423 C 8.70708 59.2772 162.08 C.3 0 **** -0.106
30424 C 9.10189 60.6382 162.667 C.3 0 **** -0.106
30425 C 7.91392 61.5943 162.644 C.3 0 **** -0.106
30426 C 7.49773 61.8685 161.186 C.3 0 **** -0.053
30427 C 6.19102 62.7024 161.119 C.3 0 **** -0.106
30428 C 5.76366 62.8651 159.684 C.2 0 **** 0
30429 C 5.94567 61.8254 158.77 C.2 0 **** 0
30430 C 5.49551 61.9839 157.447 C.2 0 **** -0.1268
30431 C 4.85547 63.1513 157.079 C.2 0 **** -0.1268
30432 C 4.63352 64.1692 157.989 C.2 0 **** 0
30433 C 5.07602 64.0127 159.303 C.2 0 **** 0
30434 C 9.79953 45.9388 157.451 C.3 0 **** -0.106
30435 C 8.79799 45.5479 158.558 C.3 0 **** -0.159
30436 C 9.60365 43.7572 155.548 C.3 0 **** -0.159
30437 C 8.49781 48.5102 156.811 C.3 0 **** -0.159
30438 C 8.51501 44.2289 152.918 C.3 0 **** -0.159
30439 C 5.7943 47.1155 149.847 C.3 0 **** -0.159
30440 C 4.01154 49.3352 149.514 C.3 0 **** -0.159
30441 O 3.74765 51.9005 150.25 O.3 0 **** -0.452
30442 C -0.606649 53.9065 151.701 C.3 0 **** -0.159
30443 C -0.562057 55.0556 154.314 C.3 0 **** -0.159
30444 O 3.78092 56.9471 154.898 O.3 0 **** -0.452
30445 O 7.12369 52.6509 155.681 O.3 0 **** -0.452
30446 O 8.24584 53.9591 157.476 O.2 0 **** -0.419
30447 O 4.94876 58.0705 156.818 O.2 0 **** -0.419
30448 C 4.79628 65.1079 160.318 C.3 0 **** -0.159
30449 C 3.89652 65.407 157.518 C.3 0 **** -0.159
30450 H 6.5856 49.1114 155.136 H 0 **** 0.053
30451 H 8.07857 49.672 154.325 H 0 **** 0.053
30452 H 8.11405 46.7525 151.513 H 0 **** 0.053
30453 H 6.62889 45.9254 152.056 H 0 **** 0.053
30454 H 6.485 51.0914 154.541 H 0 **** 0.1268
30455 H 1.84377 56.0009 154.607 H 0 **** 0.053
30456 H 1.6055 56.0137 152.854 H 0 **** 0.053
30457 H 1.01353 53.6567 154.713 H 0 **** 0.053
30458 H 0.34529 52.4254 152.931 H 0 **** 0.053
30459 H 1.74625 54.2923 151.004 H 0 **** 0.053
30460 H 1.77038 52.529 151.086 H 0 **** 0.053
30461 H 9.05383 55.1174 159.436 H 0 **** 0.053
30462 H 9.6274 56.6173 158.685 H 0 **** 0.053
30463 H 9.10803 56.9504 161.088 H 0 **** 0.053
30464 H 7.47114 56.3197 160.888 H 0 **** 0.053
30465 H 8.10593 58.7269 162.83 H 0 **** 0.053
30466 H 9.63435 58.6946 161.932 H 0 **** 0.053
30467 H 9.92685 61.0758 162.074 H 0 **** 0.053
30468 H 9.48934 60.5179 163.696 H 0 **** 0.053
30469 H 8.15622 62.5475 163.151 H 0 **** 0.053
30470 H 7.06558 61.1474 163.194 H 0 **** 0.053
30471 H 8.31308 62.4679 160.712 H 0 **** 0.053
30472 H 5.39646 62.1789 161.698 H 0 **** 0.053
30473 H 6.36741 63.671 161.635 H 0 **** 0.053
30474 H 5.63952 61.1887 156.705 H 0 **** 0.1268
30475 H 4.50139 63.2668 156.041 H 0 **** 0.1268
30476 H 10.3598 46.8393 157.77 H 0 **** 0.053
30477 H 10.5832 45.1628 157.391 H 0 **** 0.053
30478 H 8.25844 44.6227 158.296 H 0 **** 0.053
30479 H 8.05002 46.3407 158.722 H 0 **** 0.053
30480 H 9.30735 45.3701 159.526 H 0 **** 0.053
30481 H 9.08441 42.9351 155.017 H 0 **** 0.053
30482 H 9.48976 43.5051 156.619 H 0 **** 0.053
30483 H 10.6856 43.6725 155.304 H 0 **** 0.053
30484 H 7.45539 48.7924 157.081 H 0 **** 0.053
30485 H 8.9825 49.4197 156.395 H 0 **** 0.053
30486 H 9.00059 48.317 157.77 H 0 **** 0.053
30487 H 8.47233 44.6 151.876 H 0 **** 0.053
30488 H 7.65529 43.5344 153.046 H 0 **** 0.053
30489 H 9.43942 43.6219 152.961 H 0 **** 0.053
30490 H 5.68552 47.4928 148.814 H 0 **** 0.053
30491 H 5.00012 46.352 150.013 H 0 **** 0.053
30492 H 6.76598 46.571 149.834 H 0 **** 0.053
30493 H 3.00265 49.7309 149.766 H 0 **** 0.053
30494 H 3.78085 48.3146 149.104 H 0 **** 0.053
30495 H 4.39662 49.936 148.649 H 0 **** 0.053
30496 H 3.55523 52.8415 150.225 H 0 **** 0.41
30497 H -1.57881 53.8119 152.203 H 0 **** 0.053
30498 H -0.647204 53.2854 150.786 H 0 **** 0.053
30499 H -0.475628 54.9581 151.378 H 0 **** 0.053
30500 H -0.40256 55.594 155.267 H 0 **** 0.053
30501 H -1.39386 54.3519 154.467 H 0 **** 0.053
30502 H -0.870528 55.8108 153.564 H 0 **** 0.053
30503 H 3.96354 57.6382 155.552 H 0 **** 0.41
30504 H 7.75176 52.8616 156.388 H 0 **** 0.41
30505 H 4.34216 64.6991 161.24 H 0 **** 0.053
30506 H 4.08816 65.8778 159.957 H 0 **** 0.053
30507 H 5.72257 65.6462 160.607 H 0 **** 0.053
30508 H 2.93645 65.5415 158.049 H 0 **** 0.053
30509 H 3.65387 65.3622 156.442 H 0 **** 0.053
30510 H 4.49401 66.3233 157.668 H 0 **** 0.053
30511 C 13.3531 61.3666 168.461 C.2 0 **** 0
30512 C 13.5379 59.9929 168.481 C.2 0 **** 0
30513 C 14.1212 59.3569 167.396 C.2 0 **** 0
30514 C 14.5238 60.104 166.317 C.2 0 **** 0
30515 C 14.392 61.4874 166.314 C.2 0 **** 0
30516 C 13.8133 62.1192 167.395 C.2 0 **** 0
30517 C 15.1444 59.4346 165.107 C.3 0 **** -0.106
30518 C 15.1582 57.9136 165.04 C.2 0 **** 0
30519 C 14.7578 57.1627 166.11 C.2 0 **** 0
30520 C 14.3104 57.8423 167.402 C.3 0 **** -0.106
30521 C 14.7553 55.7677 166.01 C.2 0 **** 0
30522 C 15.0786 55.1345 164.826 C.2 0 **** 0
30523 C 15.5821 55.8911 163.775 C.2 0 **** 0
30524 C 15.6084 57.288 163.864 C.2 0 **** 0
30525 C 16.0572 58.0464 162.794 C.2 0 **** -0.1268
30526 C 16.3709 57.5313 161.553 C.2 0 **** 0
30527 C 16.1888 56.1069 161.452 C.2 0 **** 0
30528 C 16.0327 55.3137 162.591 C.2 0 **** 0.042
30529 C 16.4172 55.405 160.098 C.3 0 **** 0
30530 C 16.8785 56.2508 158.909 C.3 0 **** 0
30531 C 17.2617 57.7188 159.18 C.2 0 **** 0
30532 C 16.9764 58.3239 160.449 C.2 0 **** 0
30533 C 16.3641 55.7609 157.539 C.3 0 **** -0.106
30534 C 14.8675 55.4356 157.572 C.3 0 **** -0.053
30535 C 14.5455 54.3025 158.593 C.3 0 **** -0.053
30536 C 15.6273 54.1374 159.693 C.3 0 **** -0.106
30537 C 17.4386 59.6438 160.621 C.2 0 **** 0.042
30538 C 18.0958 60.3017 159.603 C.2 0 **** 0.052
30539 C 18.3815 59.6706 158.4 C.2 0 **** 0.052
30540 C 18.0167 58.3637 158.218 C.2 0 **** 0.042
30541 C 19.1073 60.3608 157.275 C.2 0 **** 0.367
30542 C 19.4949 61.7819 157.512 C.2 0 **** 0
30543 C 19.2215 62.3929 158.669 C.2 0 **** 0
30544 C 18.5267 61.7326 159.794 C.2 0 **** 0.367
30545 C 19.573 63.8364 158.88 C.3 0 **** -0.106
30546 C 19.4645 64.6236 157.567 C.3 0 **** -0.106
30547 C 20.2372 63.9223 156.444 C.2 0 **** 0
30548 C 20.2379 62.5094 156.405 C.2 0 **** 0.2405
30549 N 20.8584 61.8212 155.421 N.2 0 **** -0.481
30550 C 21.4062 62.5118 154.426 C.2 0 **** 0.2405
30551 C 21.4718 63.9247 154.428 C.2 0 **** 0
30552 C 20.8925 64.6205 155.459 C.2 0 **** 0
30553 C 20.9164 66.1438 155.501 C.3 0 **** -0.106
30554 C 21.9373 66.7548 154.533 C.3 0 **** -0.106
30555 C 21.8561 66.0731 153.172 C.3 0 **** -0.106
30556 C 22.2388 64.5867 153.311 C.3 0 **** -0.053
30557 C 22.0047 63.8195 151.982 C.3 0 **** -0.106
30558 C 22.2951 62.3556 152.183 C.2 0 **** 0
30559 C 21.9707 61.7292 153.387 C.2 0 **** 0
30560 C 22.204 60.3498 153.532 C.2 0 **** -0.1268
30561 C 22.7245 59.6297 152.474 C.2 0 **** -0.1268
30562 C 23.0124 60.2357 151.264 C.2 0 **** 0
30563 C 22.7763 61.6025 151.116 C.2 0 **** 0
30564 C 13.7097 63.6224 167.43 C.3 0 **** -0.106
30565 C 12.4483 64.1104 166.687 C.3 0 **** -0.159
30566 C 12.648 62.0329 169.614 C.3 0 **** -0.159
30567 C 14.876 62.2405 165.096 C.3 0 **** -0.159
30568 C 13.0985 59.1843 169.677 C.3 0 **** -0.159
30569 C 14.3321 54.9725 167.246 C.3 0 **** -0.159
30570 C 14.8481 53.6434 164.759 C.3 0 **** -0.159
30571 O 16.2454 53.9674 162.493 O.3 0 **** -0.452
30572 C 14.4054 52.9188 157.955 C.3 0 **** -0.159
30573 C 14.4256 55.1203 156.138 C.3 0 **** -0.159
30574 O 18.3566 57.6472 157.103 O.3 0 **** -0.452
30575 O 17.2486 60.2889 161.799 O.3 0 **** -0.452
30576 O 18.3204 62.3061 160.816 O.2 0 **** -0.419
30577 O 19.3076 59.8018 156.235 O.2 0 **** -0.419
30578 C 23.044 62.2649 149.775 C.3 0 **** -0.159
30579 C 23.5514 59.3752 150.139 C.3 0 **** -0.159
30580 H 14.592 59.8002 164.211 H 0 **** 0.053
30581 H 16.1954 59.8007 165.004 H 0 **** 0.053
30582 H 15.0472 57.5918 168.203 H 0 **** 0.053
30583 H 13.3455 57.3818 167.709 H 0 **** 0.053
30584 H 16.102 59.0956 162.981 H 0 **** 0.1268
30585 H 16.5411 56.5023 156.757 H 0 **** 0.053
30586 H 16.9432 54.8663 157.299 H 0 **** 0.053
30587 H 14.3325 56.3467 157.895 H 0 **** 0.053
30588 H 13.5952 54.5604 159.079 H 0 **** 0.053
30589 H 16.4032 53.4571 159.33 H 0 **** 0.053
30590 H 15.1573 53.6647 160.564 H 0 **** 0.053
30591 H 19.0031 64.3251 159.681 H 0 **** 0.053
30592 H 20.6165 63.8574 159.184 H 0 **** 0.053
30593 H 19.8395 65.6433 157.775 H 0 **** 0.053
30594 H 18.3943 64.732 157.304 H 0 **** 0.053
30595 H 19.9104 66.5307 155.247 H 0 **** 0.053
30596 H 21.1472 66.5156 156.516 H 0 **** 0.053
30597 H 22.9603 66.6303 154.929 H 0 **** 0.053
30598 H 21.7763 67.8441 154.439 H 0 **** 0.053
30599 H 22.5211 66.565 152.437 H 0 **** 0.053
30600 H 20.8274 66.156 152.776 H 0 **** 0.053
30601 H 23.3297 64.5392 153.545 H 0 **** 0.053
30602 H 20.9471 63.9616 151.662 H 0 **** 0.053
30603 H 22.6344 64.2863 151.194 H 0 **** 0.053
30604 H 21.9663 59.8383 154.473 H 0 **** 0.1268
30605 H 22.8868 58.5466 152.59 H 0 **** 0.1268
30606 H 14.6015 64.1128 166.993 H 0 **** 0.053
30607 H 13.6876 64.0148 168.463 H 0 **** 0.053
30608 H 11.5354 63.6811 167.132 H 0 **** 0.053
30609 H 12.473 63.825 165.623 H 0 **** 0.053
30610 H 12.3495 65.2134 166.73 H 0 **** 0.053
30611 H 11.904 61.3741 170.103 H 0 **** 0.053
30612 H 12.0648 62.9212 169.306 H 0 **** 0.053
30613 H 13.3588 62.3652 170.403 H 0 **** 0.053
30614 H 14.3207 61.937 164.18 H 0 **** 0.053
30615 H 15.954 62.0572 164.898 H 0 **** 0.053
30616 H 14.765 63.3336 165.15 H 0 **** 0.053
30617 H 13.6558 58.2353 169.798 H 0 **** 0.053
30618 H 12.0202 58.9169 169.617 H 0 **** 0.053
30619 H 13.2531 59.7233 170.631 H 0 **** 0.053
30620 H 14.848 53.9989 167.32 H 0 **** 0.053
30621 H 13.2356 54.7756 167.258 H 0 **** 0.053
30622 H 14.5779 55.4828 168.205 H 0 **** 0.053
30623 H 14.3995 53.3329 163.789 H 0 **** 0.053
30624 H 14.1124 53.2457 165.51 H 0 **** 0.053
30625 H 15.7855 53.0442 164.898 H 0 **** 0.053
30626 H 16.7938 53.786 161.725 H 0 **** 0.41
30627 H 13.559 52.8767 157.257 H 0 **** 0.053
30628 H 14.2291 52.1507 158.732 H 0 **** 0.053
30629 H 15.3271 52.6306 157.412 H 0 **** 0.053
30630 H 14.6087 55.9859 155.474 H 0 **** 0.053
30631 H 13.3509 54.889 156.091 H 0 **** 0.053
30632 H 14.9905 54.2649 155.717 H 0 **** 0.053
30633 H 18.7594 58.2565 156.465 H 0 **** 0.41
30634 H 17.5826 61.1968 161.736 H 0 **** 0.41
30635 H 22.1781 62.8656 149.437 H 0 **** 0.053
30636 H 23.2408 61.5469 148.956 H 0 **** 0.053
30637 H 23.9252 62.9383 149.818 H 0 **** 0.053
30638 H 22.8623 59.3505 149.274 H 0 **** 0.053
30639 H 23.6972 58.3255 150.449 H 0 **** 0.053
30640 H 24.5298 59.7359 149.775 H 0 **** 0.053
30641 C 47.1099 0.343801 136.229 C.2 0 **** 0
30642 C 47.9398 1.12956 135.444 C.2 0 **** 0
30643 C 48.0481 2.48788 135.696 C.2 0 **** 0
30644 C 47.3378 3.03598 136.735 C.2 0 **** 0
30645 C 46.548 2.24431 137.561 C.2 0 **** 0
30646 C 46.4433 0.891714 137.311 C.2 0 **** 0
30647 C 47.4173 4.52226 137.02 C.3 0 **** -0.106
30648 C 48.1613 5.4167 136.037 C.2 0 **** 0
30649 C 48.8703 4.87844 135 C.2 0 **** 0
30650 C 48.9447 3.36321 134.824 C.3 0 **** -0.106
30651 C 49.5213 5.725 134.096 C.2 0 **** 0
30652 C 49.3991 7.09745 134.189 C.2 0 **** 0
30653 C 48.7664 7.644 135.299 C.2 0 **** 0
30654 C 48.1251 6.8096 136.223 C.2 0 **** 0
30655 C 47.4438 7.35632 137.3 C.2 0 **** -0.1268
30656 C 47.2249 8.7067 137.478 C.2 0 **** 0
30657 C 47.7718 9.52747 136.429 C.2 0 **** 0
30658 C 48.7015 9.01686 135.52 C.2 0 **** 0.042
30659 C 47.5293 11.0499 136.45 C.3 0 **** 0
30660 C 46.7479 11.6466 137.624 C.3 0 **** 0
30661 C 46.4032 10.7145 138.802 C.2 0 **** 0
30662 C 46.6086 9.29954 138.697 C.2 0 **** 0
30663 C 45.8981 12.8833 137.262 C.3 0 **** -0.106
30664 C 45.0927 12.6689 135.976 C.3 0 **** -0.053
30665 C 46.0198 12.3993 134.752 C.3 0 **** -0.053
30666 C 47.4266 11.8781 135.147 C.3 0 **** -0.106
30667 C 46.3372 8.54871 139.859 C.2 0 **** 0.042
30668 C 45.8739 9.15865 141.005 C.2 0 **** 0.052
30669 C 45.7137 10.5346 141.076 C.2 0 **** 0.052
30670 C 46.0405 11.3118 139.996 C.2 0 **** 0.042
30671 C 45.2206 11.2292 142.318 C.2 0 **** 0.367
30672 C 44.9043 10.3542 143.486 C.2 0 **** 0
30673 C 45.0712 9.02725 143.43 C.2 0 **** 0
30674 C 45.5536 8.32321 142.218 C.2 0 **** 0.367
30675 C 44.738 8.1478 144.614 C.3 0 **** -0.106
30676 C 43.5055 8.73473 145.346 C.3 0 **** -0.106
30677 C 43.7209 10.2096 145.687 C.2 0 **** 0
30678 C 44.4058 11.0216 144.755 C.2 0 **** 0.2405
30679 N 44.6156 12.3375 144.971 N.2 0 **** -0.481
30680 C 44.0713 12.8878 146.052 C.2 0 **** 0.2405
30681 C 43.4017 12.124 147.036 C.2 0 **** 0
30682 C 43.244 10.7744 146.844 C.2 0 **** 0
30683 C 42.5115 9.90699 147.86 C.3 0 **** -0.106
30684 C 42.3462 10.5945 149.221 C.3 0 **** -0.106
30685 C 41.8785 12.0345 149.038 C.3 0 **** -0.106
30686 C 42.9577 12.8385 148.288 C.3 0 **** -0.053
30687 C 42.4564 14.2633 147.933 C.3 0 **** -0.106
30688 C 43.4982 14.9818 147.117 C.2 0 **** 0
30689 C 44.2659 14.2861 146.181 C.2 0 **** 0
30690 C 45.201 14.9875 145.399 C.2 0 **** -0.1268
30691 C 45.3259 16.3555 145.546 C.2 0 **** -0.1268
30692 C 44.5384 17.0583 146.441 C.2 0 **** 0
30693 C 43.6084 16.3652 147.216 C.2 0 **** 0
30694 C 45.6316 0.0105383 138.226 C.3 0 **** -0.106
30695 C 44.1392 0.0253107 137.832 C.3 0 **** -0.159
30696 C 46.9432 -1.11557 135.894 C.3 0 **** -0.159
30697 C 45.8115 2.91933 138.695 C.3 0 **** -0.159
30698 C 48.7213 0.513326 134.309 C.3 0 **** -0.159
30699 C 50.3283 5.07315 132.973 C.3 0 **** -0.159
30700 C 49.9637 7.91631 133.053 C.3 0 **** -0.159
30701 O 49.47 9.88891 134.801 O.3 0 **** -0.452
30702 C 46.2761 13.6357 133.888 C.3 0 **** -0.159
30703 C 44.1671 13.8781 135.797 C.3 0 **** -0.159
30704 O 46.0181 12.6798 140.031 O.3 0 **** -0.452
30705 O 46.5427 7.20759 139.871 O.3 0 **** -0.452
30706 O 45.6897 7.14143 142.209 O.2 0 **** -0.419
30707 O 45.0568 12.4138 142.338 O.2 0 **** -0.419
30708 C 42.711 17.1368 148.169 C.3 0 **** -0.159
30709 C 44.7112 18.5619 146.524 C.3 0 **** -0.159
30710 H 46.3707 4.90044 137.084 H 0 **** 0.053
30711 H 47.8686 4.66113 138.033 H 0 **** 0.053
30712 H 50.0018 3.04275 134.988 H 0 **** 0.053
30713 H 48.7094 3.13565 133.761 H 0 **** 0.053
30714 H 47.0437 6.64024 137.982 H 0 **** 0.1268
30715 H 45.2066 13.1418 138.066 H 0 **** 0.053
30716 H 46.6015 13.7097 137.137 H 0 **** 0.053
30717 H 44.4555 11.7784 136.123 H 0 **** 0.053
30718 H 45.5298 11.6364 134.133 H 0 **** 0.053
30719 H 48.0841 12.7321 135.333 H 0 **** 0.053
30720 H 47.8374 11.3282 134.291 H 0 **** 0.053
30721 H 44.523 7.10366 144.322 H 0 **** 0.053
30722 H 45.6128 8.11542 145.286 H 0 **** 0.053
30723 H 43.3192 8.10262 146.232 H 0 **** 0.053
30724 H 42.6134 8.61298 144.696 H 0 **** 0.053
30725 H 41.5092 9.65082 147.466 H 0 **** 0.053
30726 H 43.0376 8.95019 148.029 H 0 **** 0.053
30727 H 43.3134 10.5969 149.758 H 0 **** 0.053
30728 H 41.6386 10.0298 149.856 H 0 **** 0.053
30729 H 41.6628 12.5135 150.012 H 0 **** 0.053
30730 H 40.9371 12.05 148.459 H 0 **** 0.053
30731 H 43.8343 12.943 148.973 H 0 **** 0.053
30732 H 41.5082 14.1804 147.354 H 0 **** 0.053
30733 H 42.202 14.79 148.878 H 0 **** 0.053
30734 H 45.8279 14.463 144.667 H 0 **** 0.1268
30735 H 46.0577 16.8991 144.927 H 0 **** 0.1268
30736 H 45.7301 0.307586 139.288 H 0 **** 0.053
30737 H 45.9883 -1.03476 138.223 H 0 **** 0.053
30738 H 43.9996 -0.31694 136.793 H 0 **** 0.053
30739 H 43.7108 1.03763 137.914 H 0 **** 0.053
30740 H 43.5379 -0.641012 138.482 H 0 **** 0.053
30741 H 47.0557 -1.32482 134.812 H 0 **** 0.053
30742 H 45.9361 -1.50082 136.143 H 0 **** 0.053
30743 H 47.68 -1.75342 136.43 H 0 **** 0.053
30744 H 45.0916 3.68053 138.319 H 0 **** 0.053
30745 H 46.5066 3.443 139.386 H 0 **** 0.053
30746 H 45.2136 2.24687 139.328 H 0 **** 0.053
30747 H 49.6381 1.07569 134.046 H 0 **** 0.053
30748 H 48.1111 0.444034 133.381 H 0 **** 0.053
30749 H 49.078 -0.506878 134.547 H 0 **** 0.053
30750 H 51.2001 5.67899 132.673 H 0 **** 0.053
30751 H 49.7092 4.90254 132.063 H 0 **** 0.053
30752 H 50.7639 4.08779 133.255 H 0 **** 0.053
30753 H 49.2879 8.74981 132.76 H 0 **** 0.053
30754 H 50.1005 7.35677 132.087 H 0 **** 0.053
30755 H 50.96 8.36873 133.291 H 0 **** 0.053
30756 H 49.501 10.736 135.253 H 0 **** 0.41
30757 H 45.3516 14.0082 133.427 H 0 **** 0.053
30758 H 46.9789 13.3953 133.068 H 0 **** 0.053
30759 H 46.7307 14.4538 134.481 H 0 **** 0.053
30760 H 43.4815 13.9758 136.66 H 0 **** 0.053
30761 H 43.5482 13.7789 134.893 H 0 **** 0.053
30762 H 44.741 14.8239 135.732 H 0 **** 0.053
30763 H 45.6123 12.9556 140.867 H 0 **** 0.41
30764 H 46.2657 6.837 140.722 H 0 **** 0.41
30765 H 41.6478 16.8634 148.035 H 0 **** 0.053
30766 H 42.7538 18.2339 148.029 H 0 **** 0.053
30767 H 42.9783 16.9467 149.229 H 0 **** 0.053
30768 H 43.7921 19.099 146.226 H 0 **** 0.053
30769 H 45.5144 18.9256 145.859 H 0 **** 0.053
30770 H 44.976 18.8903 147.544 H 0 **** 0.053
30771 C 41.7011 95.9882 115.532 C.2 0 **** 0
30772 C 41.479 94.9308 116.401 C.2 0 **** 0
30773 C 42.3639 93.865 116.435 C.2 0 **** 0
30774 C 43.4631 93.8793 115.612 C.2 0 **** 0
30775 C 43.7213 94.9617 114.78 C.2 0 **** 0
30776 C 42.8408 96.0231 114.749 C.2 0 **** 0
30777 C 44.4365 92.7178 115.61 C.3 0 **** -0.106
30778 C 44.0857 91.4685 116.406 C.2 0 **** 0
30779 C 42.9923 91.446 117.227 C.2 0 **** 0
30780 C 42.1158 92.6878 117.374 C.3 0 **** -0.106
30781 C 42.679 90.2759 117.925 C.2 0 **** 0
30782 C 43.4099 89.1182 117.746 C.2 0 **** 0
30783 C 44.5777 89.1696 116.994 C.2 0 **** 0
30784 C 44.9156 90.3389 116.302 C.2 0 **** 0
30785 C 46.05 90.3734 115.505 C.2 0 **** -0.1268
30786 C 46.8349 89.2751 115.221 C.2 0 **** 0
30787 C 46.3715 88.0559 115.83 C.2 0 **** 0
30788 C 45.4253 88.074 116.858 C.2 0 **** 0.042
30789 C 47.1001 86.7307 115.531 C.3 0 **** 0
30790 C 48.3321 86.7666 114.623 C.3 0 **** 0
30791 C 48.8751 88.1484 114.207 C.2 0 **** 0
30792 C 48.1216 89.3384 114.474 C.2 0 **** 0
30793 C 48.5301 85.4994 113.765 C.3 0 **** -0.106
30794 C 47.2286 85.0562 113.089 C.3 0 **** -0.053
30795 C 46.1242 84.7113 114.134 C.3 0 **** -0.053
30796 C 46.3545 85.3746 115.517 C.3 0 **** -0.106
30797 C 48.7437 90.554 114.125 C.2 0 **** 0.042
30798 C 49.9907 90.569 113.537 C.2 0 **** 0.052
30799 C 50.7002 89.3973 113.321 C.2 0 **** 0.052
30800 C 50.1669 88.1989 113.715 C.2 0 **** 0.042
30801 C 52.0685 89.3851 112.691 C.2 0 **** 0.367
30802 C 52.6319 90.7113 112.302 C.2 0 **** 0
30803 C 51.96 91.8476 112.521 C.2 0 **** 0
30804 C 50.612 91.8832 113.138 C.2 0 **** 0.367
30805 C 52.5327 93.1857 112.113 C.3 0 **** -0.106
30806 C 53.3326 93.0123 110.798 C.3 0 **** -0.106
30807 C 54.3621 91.8893 110.927 C.2 0 **** 0
30808 C 54.0098 90.736 111.664 C.2 0 **** 0.2405
30809 N 54.8525 89.6904 111.802 N.2 0 **** -0.481
30810 C 56.0062 89.7263 111.143 C.2 0 **** 0.2405
30811 C 56.4281 90.8626 110.414 C.2 0 **** 0
30812 C 55.5942 91.9488 110.325 C.2 0 **** 0
30813 C 55.9878 93.1904 109.534 C.3 0 **** -0.106
30814 C 57.4877 93.2447 109.219 C.3 0 **** -0.106
30815 C 57.9772 91.8904 108.717 C.3 0 **** -0.106
30816 C 57.8187 90.8373 109.83 C.3 0 **** -0.053
30817 C 58.1477 89.4124 109.311 C.3 0 **** -0.106
30818 C 57.8868 88.4017 110.396 C.2 0 **** 0
30819 C 56.8121 88.567 111.272 C.2 0 **** 0
30820 C 56.5608 87.5854 112.247 C.2 0 **** -0.1268
30821 C 57.3606 86.4605 112.307 C.2 0 **** -0.1268
30822 C 58.4013 86.269 111.415 C.2 0 **** 0
30823 C 58.6503 87.2395 110.445 C.2 0 **** 0
30824 C 43.1322 97.2273 113.891 C.3 0 **** -0.106
30825 C 42.6501 97.0068 112.441 C.3 0 **** -0.159
30826 C 40.6897 97.102 115.452 C.3 0 **** -0.159
30827 C 44.9619 94.9103 113.918 C.3 0 **** -0.159
30828 C 40.2711 94.9312 117.306 C.3 0 **** -0.159
30829 C 41.4665 90.3125 118.856 C.3 0 **** -0.159
30830 C 42.8715 87.8593 118.384 C.3 0 **** -0.159
30831 O 45.2969 86.9735 117.658 O.3 0 **** -0.452
30832 C 45.9936 83.2143 114.422 C.3 0 **** -0.159
30833 C 47.5649 83.9004 112.139 C.3 0 **** -0.159
30834 O 50.8542 87.0177 113.637 O.3 0 **** -0.452
30835 O 48.1267 91.7357 114.377 O.3 0 **** -0.452
30836 O 50.0459 92.9132 113.316 O.2 0 **** -0.419
30837 O 52.6405 88.3554 112.481 O.2 0 **** -0.419
30838 C 59.7635 87.0142 109.435 C.3 0 **** -0.159
30839 C 59.2152 84.995 111.523 C.3 0 **** -0.159
30840 H 44.5725 92.4059 114.549 H 0 **** 0.053
30841 H 45.4293 93.0917 115.961 H 0 **** 0.053
30842 H 42.2087 93.0601 118.423 H 0 **** 0.053
30843 H 41.0573 92.3704 117.247 H 0 **** 0.053
30844 H 46.259 91.3253 115.071 H 0 **** 0.1268
30845 H 49.2865 85.6538 112.993 H 0 **** 0.053
30846 H 48.8889 84.7239 114.445 H 0 **** 0.053
30847 H 46.8645 85.8992 112.475 H 0 **** 0.053
30848 H 45.169 85.0737 113.731 H 0 **** 0.053
30849 H 46.993 84.7247 116.122 H 0 **** 0.053
30850 H 45.3852 85.4473 116.025 H 0 **** 0.053
30851 H 51.7537 93.9555 111.965 H 0 **** 0.053
30852 H 53.1886 93.5498 112.923 H 0 **** 0.053
30853 H 53.7795 93.9917 110.555 H 0 **** 0.053
30854 H 52.6196 92.7939 109.975 H 0 **** 0.053
30855 H 55.4222 93.2127 108.583 H 0 **** 0.053
30856 H 55.726 94.1161 110.078 H 0 **** 0.053
30857 H 58.052 93.514 110.132 H 0 **** 0.053
30858 H 57.6987 94.0379 108.478 H 0 **** 0.053
30859 H 59.0349 91.94 108.395 H 0 **** 0.053
30860 H 57.3887 91.5858 107.832 H 0 **** 0.053
30861 H 58.5521 91.0877 110.635 H 0 **** 0.053
30862 H 57.5113 89.1937 108.424 H 0 **** 0.053
30863 H 59.1995 89.4055 108.951 H 0 **** 0.053
30864 H 55.7324 87.6977 112.958 H 0 **** 0.1268
30865 H 57.1551 85.6932 113.071 H 0 **** 0.1268
30866 H 44.21 97.4817 113.88 H 0 **** 0.053
30867 H 42.6609 98.1448 114.286 H 0 **** 0.053
30868 H 41.5671 96.8024 112.41 H 0 **** 0.053
30869 H 43.1685 96.1559 111.97 H 0 **** 0.053
30870 H 42.8361 97.8974 111.808 H 0 **** 0.053
30871 H 39.6581 96.7637 115.672 H 0 **** 0.053
30872 H 40.6215 97.5481 114.442 H 0 **** 0.053
30873 H 40.9215 97.9277 116.161 H 0 **** 0.053
30874 H 44.931 94.0535 113.208 H 0 **** 0.053
30875 H 45.8842 94.7938 114.527 H 0 **** 0.053
30876 H 45.1298 95.7976 113.29 H 0 **** 0.053
30877 H 40.4036 94.3225 118.221 H 0 **** 0.053
30878 H 39.3698 94.5363 116.786 H 0 **** 0.053
30879 H 40.0218 95.9435 117.677 H 0 **** 0.053
30880 H 41.5846 89.651 119.732 H 0 **** 0.053
30881 H 40.5302 90.0139 118.331 H 0 **** 0.053
30882 H 41.2801 91.3173 119.299 H 0 **** 0.053
30883 H 42.9536 86.98 117.707 H 0 **** 0.053
30884 H 41.7737 87.8848 118.623 H 0 **** 0.053
30885 H 43.3906 87.5911 119.34 H 0 **** 0.053
30886 H 46.1003 86.4485 117.611 H 0 **** 0.41
30887 H 45.681 82.6546 113.53 H 0 **** 0.053
30888 H 45.2328 83.0362 115.205 H 0 **** 0.053
30889 H 46.9489 82.7901 114.789 H 0 **** 0.053
30890 H 48.2955 84.2238 111.374 H 0 **** 0.053
30891 H 46.669 83.5427 111.61 H 0 **** 0.053
30892 H 48.0203 83.0475 112.681 H 0 **** 0.053
30893 H 51.6774 87.1777 113.151 H 0 **** 0.41
30894 H 48.6636 92.469 114.041 H 0 **** 0.41
30895 H 59.4104 87.1764 108.4 H 0 **** 0.053
30896 H 60.1733 85.9862 109.449 H 0 **** 0.053
30897 H 60.6216 87.6955 109.61 H 0 **** 0.053
30898 H 59.1251 84.3701 110.615 H 0 **** 0.053
30899 H 58.8906 84.364 112.369 H 0 **** 0.053
30900 H 60.2874 85.2047 111.681 H 0 **** 0.053
30901 C 90.7504 58.8793 144.447 C.2 0 **** 0
30902 C 91.7659 58.1803 143.813 C.2 0 **** 0
30903 C 91.8934 56.8144 144.01 C.2 0 **** 0
30904 C 90.9968 56.1667 144.823 C.2 0 **** 0
30905 C 89.9436 56.8516 145.417 C.2 0 **** 0
30906 C 89.8166 58.2109 145.219 C.2 0 **** 0
30907 C 91.1239 54.6776 145.076 C.3 0 **** -0.106
30908 C 92.3536 53.9495 144.551 C.2 0 **** 0
30909 C 93.2515 54.5877 143.741 C.2 0 **** 0
30910 C 93.0206 56.0407 143.331 C.3 0 **** -0.106
30911 C 94.3861 53.9021 143.295 C.2 0 **** 0
30912 C 94.6561 52.6154 143.718 C.2 0 **** 0
30913 C 93.6952 51.9338 144.456 C.2 0 **** 0
30914 C 92.545 52.6002 144.895 C.2 0 **** 0
30915 C 91.6132 51.9374 145.679 C.2 0 **** -0.1268
30916 C 91.7894 50.669 146.192 C.2 0 **** 0
30917 C 93.0511 50.0703 145.842 C.2 0 **** 0
30918 C 93.846 50.5998 144.823 C.2 0 **** 0.042
30919 C 93.4233 48.6889 146.417 C.3 0 **** 0
30920 C 92.4062 47.9742 147.31 C.3 0 **** 0
30921 C 91.002 48.5981 147.438 C.2 0 **** 0
30922 C 90.7374 49.9099 146.924 C.2 0 **** 0
30923 C 93.0322 47.0955 148.414 C.3 0 **** -0.106
30924 C 94.1614 47.8212 149.152 C.3 0 **** -0.053
30925 C 95.324 48.2121 148.19 C.3 0 **** -0.053
30926 C 94.8919 48.2922 146.702 C.3 0 **** -0.106
30927 C 89.403 50.3532 147.02 C.2 0 **** 0.042
30928 C 88.435 49.5654 147.606 C.2 0 **** 0.052
30929 C 88.7248 48.2899 148.067 C.2 0 **** 0.052
30930 C 89.9911 47.7879 147.923 C.2 0 **** 0.042
30931 C 87.6845 47.4033 148.7 C.2 0 **** 0.367
30932 C 86.3086 47.9705 148.814 C.2 0 **** 0
30933 C 86.0177 49.1945 148.357 C.2 0 **** 0
30934 C 87.0253 50.0847 147.732 C.2 0 **** 0.367
30935 C 84.6244 49.766 148.486 C.3 0 **** -0.106
30936 C 84 49.2778 149.817 C.3 0 **** -0.106
30937 C 84.0792 47.7553 149.933 C.2 0 **** 0
30938 C 85.2349 47.1034 149.446 C.2 0 **** 0.2405
30939 N 85.3924 45.7654 149.535 N.2 0 **** -0.481
30940 C 84.4648 45.0692 150.185 C.2 0 **** 0.2405
30941 C 83.2733 45.6585 150.668 C.2 0 **** 0
30942 C 83.0883 47.0105 150.523 C.2 0 **** 0
30943 C 81.8348 47.7017 151.045 C.3 0 **** -0.106
30944 C 80.6996 46.7191 151.358 C.3 0 **** -0.106
30945 C 81.2315 45.5184 152.133 C.3 0 **** -0.106
30946 C 82.2331 44.7399 151.259 C.3 0 **** -0.053
30947 C 82.9244 43.6081 152.064 C.3 0 **** -0.106
30948 C 83.9643 42.9359 151.208 C.2 0 **** 0
30949 C 84.726 43.681 150.306 C.2 0 **** 0
30950 C 85.7242 43.0388 149.552 C.2 0 **** -0.1268
30951 C 85.9563 41.6891 149.734 C.2 0 **** -0.1268
30952 C 85.2344 40.9528 150.656 C.2 0 **** 0
30953 C 84.2464 41.5884 151.408 C.2 0 **** 0
30954 C 88.6513 58.9593 145.814 C.3 0 **** -0.106
30955 C 88.9414 59.3717 147.272 C.3 0 **** -0.159
30956 C 90.6721 60.3753 144.285 C.3 0 **** -0.159
30957 C 88.9881 56.0642 146.284 C.3 0 **** -0.159
30958 C 92.7398 58.9034 142.915 C.3 0 **** -0.159
30959 C 95.3418 54.6487 142.364 C.3 0 **** -0.159
30960 C 96.0021 52.0386 143.348 C.3 0 **** -0.159
30961 O 94.8158 49.8151 144.265 O.3 0 **** -0.452
30962 C 96.5014 47.2352 148.215 C.3 0 **** -0.159
30963 C 94.5997 46.9341 150.323 C.3 0 **** -0.159
30964 O 90.3218 46.5005 148.249 O.3 0 **** -0.452
30965 O 89.046 51.5636 146.522 O.3 0 **** -0.452
30966 O 86.7287 51.1662 147.338 O.2 0 **** -0.419
30967 O 87.9726 46.3214 149.123 O.2 0 **** -0.419
30968 C 83.4812 40.7958 152.454 C.3 0 **** -0.159
30969 C 85.5681 39.4838 150.823 C.3 0 **** -0.159
30970 H 91.098 54.5285 146.18 H 0 **** 0.053
30971 H 90.2148 54.1735 144.665 H 0 **** 0.053
30972 H 92.8419 56.07 142.229 H 0 **** 0.053
30973 H 93.9677 56.596 143.51 H 0 **** 0.053
30974 H 90.7413 52.5072 145.91 H 0 **** 0.1268
30975 H 92.2855 46.7802 149.144 H 0 **** 0.053
30976 H 93.4168 46.2049 147.911 H 0 **** 0.053
30977 H 93.7428 48.7519 149.576 H 0 **** 0.053
30978 H 95.6857 49.2017 148.499 H 0 **** 0.053
30979 H 94.9817 47.2999 146.251 H 0 **** 0.053
30980 H 95.5925 48.9548 146.18 H 0 **** 0.053
30981 H 84.6129 50.871 148.465 H 0 **** 0.053
30982 H 84.0226 49.4255 147.626 H 0 **** 0.053
30983 H 82.9685 49.668 149.858 H 0 **** 0.053
30984 H 84.5381 49.761 150.661 H 0 **** 0.053
30985 H 82.0834 48.2642 151.965 H 0 **** 0.053
30986 H 81.4481 48.4403 150.319 H 0 **** 0.053
30987 H 80.2426 46.3632 150.415 H 0 **** 0.053
30988 H 79.8945 47.2254 151.922 H 0 **** 0.053
30989 H 80.4092 44.8486 152.449 H 0 **** 0.053
30990 H 81.7339 45.8634 153.055 H 0 **** 0.053
30991 H 81.6556 44.267 150.428 H 0 **** 0.053
30992 H 83.4002 44.0464 152.971 H 0 **** 0.053
30993 H 82.1404 42.9095 152.429 H 0 **** 0.053
30994 H 86.3269 43.5979 148.825 H 0 **** 0.1268
30995 H 86.7431 41.1934 149.143 H 0 **** 0.1268
30996 H 87.7155 58.3678 145.783 H 0 **** 0.053
30997 H 88.3965 59.8638 145.233 H 0 **** 0.053
30998 H 89.8401 60.0073 147.334 H 0 **** 0.053
30999 H 89.1055 58.491 147.915 H 0 **** 0.053
31000 H 88.1005 59.9461 147.71 H 0 **** 0.053
31001 H 91.6632 60.8448 144.129 H 0 **** 0.053
31002 H 90.2673 60.8832 145.181 H 0 **** 0.053
31003 H 90.0317 60.6688 143.424 H 0 **** 0.053
31004 H 89.5088 55.6068 147.156 H 0 **** 0.053
31005 H 88.5068 55.2349 145.723 H 0 **** 0.053
31006 H 88.1629 56.6483 146.718 H 0 **** 0.053
31007 H 93.1995 58.2523 142.147 H 0 **** 0.053
31008 H 93.5756 59.3534 143.496 H 0 **** 0.053
31009 H 92.2591 59.7182 142.341 H 0 **** 0.053
31010 H 95.843 53.9777 141.645 H 0 **** 0.053
31011 H 96.1344 55.1904 142.93 H 0 **** 0.053
31012 H 94.833 55.4029 141.722 H 0 **** 0.053
31013 H 96.464 51.4803 144.192 H 0 **** 0.053
31014 H 96.7887 52.8011 143.096 H 0 **** 0.053
31015 H 95.9585 51.3394 142.472 H 0 **** 0.053
31016 H 94.6137 48.8904 144.43 H 0 **** 0.41
31017 H 96.9875 47.2104 149.2 H 0 **** 0.053
31018 H 97.2695 47.536 147.478 H 0 **** 0.053
31019 H 96.1783 46.2084 147.954 H 0 **** 0.053
31020 H 93.7541 46.7522 151.013 H 0 **** 0.053
31021 H 95.4049 47.4074 150.905 H 0 **** 0.053
31022 H 94.9511 45.9428 149.974 H 0 **** 0.053
31023 H 89.5645 46.0995 148.702 H 0 **** 0.41
31024 H 88.111 51.7369 146.709 H 0 **** 0.41
31025 H 83.4719 41.3163 153.43 H 0 **** 0.053
31026 H 83.9121 39.7968 152.657 H 0 **** 0.053
31027 H 82.4272 40.6262 152.151 H 0 **** 0.053
31028 H 85.9414 39.2589 151.839 H 0 **** 0.053
31029 H 86.3545 39.1538 150.121 H 0 **** 0.053
31030 H 84.6911 38.8394 150.637 H 0 **** 0.053
31031 C 78.0899 39.9045 146.443 C.2 0 **** 0
31032 C 77.6734 39.4241 145.211 C.2 0 **** 0
31033 C 78.5818 38.8086 144.365 C.2 0 **** 0
31034 C 79.8867 38.6695 144.769 C.2 0 **** 0
31035 C 80.2983 39.0989 146.025 C.2 0 **** 0
31036 C 79.3924 39.7096 146.867 C.2 0 **** 0
31037 C 80.9081 38.0212 143.856 C.3 0 **** -0.106
31038 C 80.5024 37.6826 142.428 C.2 0 **** 0
31039 C 79.2054 37.8195 142.018 C.2 0 **** 0
31040 C 78.1354 38.2947 142.999 C.3 0 **** -0.106
31041 C 78.8665 37.5267 140.693 C.2 0 **** 0
31042 C 79.8305 37.1731 139.77 C.2 0 **** 0
31043 C 81.1279 36.9357 140.209 C.2 0 **** 0
31044 C 81.4798 37.2068 141.537 C.2 0 **** 0
31045 C 82.7872 37.0247 141.962 C.2 0 **** -0.1268
31046 C 83.84 36.7113 141.127 C.2 0 **** 0
31047 C 83.4668 36.5859 139.742 C.2 0 **** 0
31048 C 82.1279 36.47 139.361 C.2 0 **** 0.042
31049 C 84.5547 36.3236 138.682 C.3 0 **** 0
31050 C 86.0024 36.157 139.151 C.3 0 **** 0
31051 C 86.26 36.0847 140.669 C.2 0 **** 0
31052 C 85.2145 36.3892 141.601 C.2 0 **** 0
31053 C 87.0604 36.665 138.148 C.3 0 **** -0.106
31054 C 86.7047 38.0469 137.591 C.3 0 **** -0.053
31055 C 85.3469 38.0285 136.825 C.3 0 **** -0.053
31056 C 84.4248 36.8493 137.232 C.3 0 **** -0.106
31057 C 85.5318 36.2146 142.963 C.2 0 **** 0.042
31058 C 86.7893 35.8034 143.351 C.2 0 **** 0.052
31059 C 87.766 35.4918 142.417 C.2 0 **** 0.052
31060 C 87.4769 35.572 141.081 C.2 0 **** 0.042
31061 C 89.1438 35.0286 142.812 C.2 0 **** 0.367
31062 C 89.4144 34.9233 144.276 C.2 0 **** 0
31063 C 88.4722 35.2076 145.183 C.2 0 **** 0
31064 C 87.1106 35.6661 144.818 C.2 0 **** 0.367
31065 C 88.7579 35.109 146.664 C.3 0 **** -0.106
31066 C 90.224 35.5367 146.925 C.3 0 **** -0.106
31067 C 91.1893 34.7537 146.035 C.2 0 **** 0
31068 C 90.7933 34.4589 144.71 C.2 0 **** 0.2405
31069 N 91.5983 33.7945 143.854 N.2 0 **** -0.481
31070 C 92.83 33.4988 144.257 C.2 0 **** 0.2405
31071 C 93.2747 33.74 145.578 C.2 0 **** 0
31072 C 92.4325 34.3617 146.465 C.2 0 **** 0
31073 C 92.867 34.667 147.893 C.3 0 **** -0.106
31074 C 94.1154 33.8831 148.316 C.3 0 **** -0.106
31075 C 95.1736 33.9319 147.219 C.3 0 **** -0.106
31076 C 94.6426 33.2286 145.955 C.3 0 **** -0.053
31077 C 95.6185 33.3992 144.761 C.3 0 **** -0.106
31078 C 95.0211 32.7856 143.523 C.2 0 **** 0
31079 C 93.6477 32.8675 143.286 C.2 0 **** 0
31080 C 93.1198 32.3278 142.099 C.2 0 **** -0.1268
31081 C 93.9684 31.7515 141.174 C.2 0 **** -0.1268
31082 C 95.3356 31.7045 141.382 C.2 0 **** 0
31083 C 95.8616 32.2421 142.557 C.2 0 **** 0
31084 C 79.8095 40.1346 148.252 C.3 0 **** -0.106
31085 C 80.4705 41.5293 148.232 C.3 0 **** -0.159
31086 C 77.108 40.6392 147.318 C.3 0 **** -0.159
31087 C 81.7473 38.8936 146.402 C.3 0 **** -0.159
31088 C 76.2342 39.576 144.783 C.3 0 **** -0.159
31089 C 77.3971 37.6625 140.294 C.3 0 **** -0.159
31090 C 79.3977 37.0785 138.326 C.3 0 **** -0.159
31091 O 81.8345 35.9774 138.12 O.3 0 **** -0.452
31092 C 85.4966 37.9169 135.307 C.3 0 **** -0.159
31093 C 87.8876 38.5273 136.742 C.3 0 **** -0.159
31094 O 88.3511 35.1732 140.106 O.3 0 **** -0.452
31095 O 84.5942 36.436 143.919 O.3 0 **** -0.452
31096 O 86.3002 35.9093 145.653 O.2 0 **** -0.419
31097 O 89.9783 34.8032 141.985 O.2 0 **** -0.419
31098 C 97.3658 32.2332 142.771 C.3 0 **** -0.159
31099 C 96.2055 31.0846 140.307 C.3 0 **** -0.159
31100 H 81.7803 38.7128 143.797 H 0 **** 0.053
31101 H 81.2753 37.0874 144.348 H 0 **** 0.053
31102 H 77.4157 37.4572 143.165 H 0 **** 0.053
31103 H 77.5605 39.1076 142.503 H 0 **** 0.053
31104 H 82.943 37.195 143.003 H 0 **** 0.1268
31105 H 88.0501 36.7193 138.605 H 0 **** 0.053
31106 H 87.0955 35.9275 137.343 H 0 **** 0.053
31107 H 86.6037 38.7387 138.447 H 0 **** 0.053
31108 H 84.8286 38.9685 137.057 H 0 **** 0.053
31109 H 84.6704 35.977 136.62 H 0 **** 0.053
31110 H 83.3904 37.1315 137.002 H 0 **** 0.053
31111 H 88.0835 35.7397 147.272 H 0 **** 0.053
31112 H 88.5933 34.0662 146.986 H 0 **** 0.053
31113 H 90.417 35.4051 148.003 H 0 **** 0.053
31114 H 90.3158 36.6272 146.733 H 0 **** 0.053
31115 H 93.0769 35.7498 147.988 H 0 **** 0.053
31116 H 92.0654 34.4372 148.618 H 0 **** 0.053
31117 H 93.8464 32.827 148.508 H 0 **** 0.053
31118 H 94.5175 34.2797 149.267 H 0 **** 0.053
31119 H 96.1153 33.4525 147.548 H 0 **** 0.053
31120 H 95.4171 34.9837 146.983 H 0 **** 0.053
31121 H 94.5685 32.1376 146.185 H 0 **** 0.053
31122 H 95.8058 34.485 144.598 H 0 **** 0.053
31123 H 96.5967 32.952 145.043 H 0 **** 0.053
31124 H 92.0425 32.365 141.895 H 0 **** 0.1268
31125 H 93.5486 31.3345 140.244 H 0 **** 0.1268
31126 H 80.5052 39.4104 148.719 H 0 **** 0.053
31127 H 78.9583 40.1554 148.956 H 0 **** 0.053
31128 H 79.784 42.287 147.82 H 0 **** 0.053
31129 H 81.3856 41.5317 147.617 H 0 **** 0.053
31130 H 80.7577 41.8615 149.25 H 0 **** 0.053
31131 H 76.3338 41.1788 146.739 H 0 **** 0.053
31132 H 77.5859 41.4254 147.933 H 0 **** 0.053
31133 H 76.5771 39.9545 148.016 H 0 **** 0.053
31134 H 82.4301 39.4439 145.717 H 0 **** 0.053
31135 H 82.0383 37.8219 146.359 H 0 **** 0.053
31136 H 82.0188 39.2354 147.412 H 0 **** 0.053
31137 H 75.9097 38.8177 144.044 H 0 **** 0.053
31138 H 76.0461 40.5715 144.323 H 0 **** 0.053
31139 H 75.5279 39.4636 145.628 H 0 **** 0.053
31140 H 77.1027 36.943 139.509 H 0 **** 0.053
31141 H 77.1604 38.685 139.92 H 0 **** 0.053
31142 H 76.691 37.4548 141.13 H 0 **** 0.053
31143 H 80.1451 37.5279 137.635 H 0 **** 0.053
31144 H 78.4594 37.6451 138.077 H 0 **** 0.053
31145 H 79.2221 36.0251 137.985 H 0 **** 0.053
31146 H 82.5827 35.4722 137.791 H 0 **** 0.41
31147 H 86.0128 38.7891 134.884 H 0 **** 0.053
31148 H 84.5029 37.8569 134.824 H 0 **** 0.053
31149 H 86.0553 37.0032 135.023 H 0 **** 0.053
31150 H 88.8064 38.593 137.355 H 0 **** 0.053
31151 H 87.6993 39.5262 136.321 H 0 **** 0.053
31152 H 88.1029 37.8271 135.91 H 0 **** 0.053
31153 H 89.2013 34.9726 140.525 H 0 **** 0.41
31154 H 84.982 36.3183 144.799 H 0 **** 0.41
31155 H 97.7398 33.2332 143.06 H 0 **** 0.053
31156 H 97.9412 31.9527 141.868 H 0 **** 0.053
31157 H 97.6633 31.5182 143.566 H 0 **** 0.053
31158 H 96.9072 31.8189 139.871 H 0 **** 0.053
31159 H 95.609 30.6865 139.468 H 0 **** 0.053
31160 H 96.8019 30.2409 140.696 H 0 **** 0.053
31161 C1 72.3995 57.4413 144.015 C.ar 0 **** 0.042
31162 C2 71.0812 57.514 143.605 C.ar 0 **** -0.1268
31163 C3 70.17 58.3003 144.29 C.ar 0 **** 0
31164 C4 70.5569 59.0372 145.411 C.ar 0 **** 0
31165 C5 71.8952 58.9673 145.809 C.ar 0 **** -0.1268
31166 C6 72.8123 58.1731 145.137 C.ar 0 **** 0
31167 C7 69.3777 59.7401 145.893 C.ar 0 **** 0
31168 C8 68.3259 59.4233 145.051 C.ar 0 **** 0
31169 C9 68.7192 58.4834 143.963 C.3 0 **** -0.106
31170 C10 67.0686 59.9755 145.27 C.ar 0 **** 0
31171 C11 66.8489 60.8623 146.344 C.ar 0 **** 0
31172 C12 67.9636 61.1443 147.181 C.ar 0 **** 0
31173 C13 69.2256 60.5782 146.969 C.ar 0 **** 0
31174 C14 70.372 60.9116 147.882 C.3 0 **** -0.106
31175 C15 69.8775 61.1798 149.303 C.3 0 **** -0.106
31176 C16 68.9442 62.3584 149.247 C.3 0 **** -0.106
31177 C17 67.7481 62.0954 148.357 C.ar 0 **** 0
31178 C18 66.5558 62.6987 148.598 C.ar 0 **** 0
31179 C19 65.4808 62.4645 147.787 C.ar 0 **** 0
31180 C20 65.5578 61.4523 146.577 C.ar 0 **** 0
31181 C21 64.4812 61.0379 145.695 C.ar 0 **** 0
31182 C22 64.8021 60.179 144.639 C.ar 0 **** 0
31183 C23 66.0263 59.6516 144.416 C.ar 0 **** 0.042
31184 C24 64.1702 63.1872 148.062 C.3 0 **** -0.106
31185 C25 64.2172 64.3404 149.106 C.ar 0 **** 0
31186 C26 65.318 64.5069 149.91 C.ar 0 **** 0
31187 C27 66.524 63.6319 149.805 C.3 0 **** -0.106
31188 C28 65.3389 65.5056 150.882 C.ar 0 **** 0.042
31189 C29 64.2635 66.3523 151.088 C.ar 0 **** 0
31190 C30 63.166 66.1767 150.259 C.ar 0 **** 0
31191 C31 63.1265 65.1883 149.279 C.ar 0 **** 0
31192 C32 61.9146 67.0606 150.386 C.ar 0 **** 0
31193 C33 62.0079 68.1232 151.486 C.3 0 **** -0.106
31194 C34 62.8782 67.6798 152.66 C.3 0 **** -0.106
31195 C35 64.2936 67.4318 152.143 C.3 0 **** -0.106
31196 C36 61.8769 65.0843 148.428 C.ar 0 **** -0.1268
31197 C37 60.8332 65.9283 148.642 C.ar 0 **** 0.0265
31198 C38 60.8368 66.8832 149.582 C.ar 0 **** -0.1268
31199 C39 63.6993 59.805 143.719 C.3 0 **** -0.106
31200 C40 62.6026 60.54 144.419 C.ar 0 **** 0
31201 C41 63.0415 61.2447 145.541 C.ar 0 **** 0
31202 C42 62.035 61.9169 146.265 C.ar 0 **** -0.1268
31203 C43 60.687 61.9114 145.85 C.ar 0 **** 0
31204 C44 60.2852 61.2033 144.698 C.ar 0 **** 0
31205 C45 61.2684 60.5005 143.983 C.ar 0 **** 0
31206 C46 60.8818 59.7585 142.846 C.ar 0 **** -0.1268
31207 C47 59.569 59.7004 142.404 C.ar 0 **** 0
31208 C48 58.6158 60.3969 143.124 C.ar 0 **** -0.1268
31209 C49 58.9381 61.1507 144.265 C.ar 0 **** 0
31210 C50 57.968 61.8505 145.004 C.ar 0 **** 0.042
31211 C51 58.3301 62.5596 146.132 C.ar 0 **** -0.1268
31212 C52 59.6553 62.5879 146.558 C.ar 0 **** -0.1268
31213 O53 73.3077 56.6643 143.336 O.3 0 **** -0.452
31214 C54 74.2625 58.1195 145.592 C.3 0 **** -0.159
31215 O55 66.2155 58.8206 143.377 O.3 0 **** -0.452
31216 C56 59.298 58.8529 141.166 C.3 0 **** -0.106
31217 C57 57.8616 58.9917 140.649 C.3 0 **** -0.159
31218 O58 59.7439 65.7937 147.868 O.3 0 **** -0.4365
31219 O59 66.4226 65.7032 151.694 O.3 0 **** -0.452
31220 O60 56.6567 61.8843 144.696 O.3 0 **** -0.452
31221 H61 70.7152 56.9509 142.716 H 0 **** 0.1268
31222 H62 72.3076 59.5309 146.657 H 0 **** 0.1268
31223 H63 68.1942 57.5121 144.008 H 0 **** 0.053
31224 H64 68.6127 58.911 142.949 H 0 **** 0.053
31225 H65 71.0838 60.0939 147.947 H 0 **** 0.053
31226 H66 70.9119 61.814 147.519 H 0 **** 0.053
31227 H67 69.3744 60.2727 149.719 H 0 **** 0.053
31228 H68 70.7499 61.3922 149.989 H 0 **** 0.053
31229 H69 68.6293 62.5941 150.271 H 0 **** 0.053
31230 H70 69.5024 63.2354 148.875 H 0 **** 0.053
31231 H71 63.8075 63.6176 147.105 H 0 **** 0.053
31232 H72 67.4035 64.2794 149.732 H 0 **** 0.053
31233 H73 62.4274 69.0512 151.047 H 0 **** 0.053
31234 H74 60.9841 68.3577 151.809 H 0 **** 0.053
31235 H75 62.8862 68.4566 153.434 H 0 **** 0.053
31236 H76 62.467 66.7698 153.12 H 0 **** 0.053
31237 H77 64.7027 68.3519 151.704 H 0 **** 0.053
31238 H78 64.9487 67.1438 152.958 H 0 **** 0.053
31239 H79 61.8582 64.3392 147.656 H 0 **** 0.1268
31240 H80 59.9963 67.5441 149.725 H 0 **** 0.1268
31241 H81 63.8383 60.1864 142.695 H 0 **** 0.053
31242 H82 63.4953 58.7224 143.7 H 0 **** 0.053
31243 H83 62.19 62.4583 147.187 H 0 **** 0.1268
31244 H84 61.6459 59.1993 142.275 H 0 **** 0.1268
31245 H85 57.5845 60.3496 142.784 H 0 **** 0.1268
31246 H86 57.5859 63.1107 146.731 H 0 **** 0.1268
31247 H87 59.933 63.1378 147.501 H 0 **** 0.1268
31248 H88 72.8558 56.2457 142.616 H 0 **** 0.41
31249 H89 74.6943 57.129 145.407 H 0 **** 0.053
31250 H90 74.3625 58.3162 146.669 H 0 **** 0.053
31251 H91 74.8677 58.8596 145.045 H 0 **** 0.053
31252 H92 65.4069 58.6999 142.899 H 0 **** 0.41
31253 H93 59.9848 59.1442 140.364 H 0 **** 0.053
31254 H94 57.6986 58.3737 139.744 H 0 **** 0.053
31255 H95 57.6244 60.0375 140.375 H 0 **** 0.053
31256 H96 57.1224 58.6577 141.401 H 0 **** 0.053
31257 H97 59.8852 65.1562 147.186 H 0 **** 0.41
31258 H98 67.0979 65.0755 151.493 H 0 **** 0.41
31259 H99 56.5025 61.3666 143.916 H 0 **** 0.41
31260 H100 63.4768 62.4288 148.479 H 0 **** 0.053
31261 H101 66.6046 63.014 150.707 H 0 **** 0.053
31262 H102 59.4916 57.7983 141.393 H 0 **** 0.053
31263 C1 36.8407 84.8959 155.458 C.ar 0 **** 0.042
31264 C2 38.1528 84.4632 155.41 C.ar 0 **** -0.1268
31265 C3 38.9783 84.5862 156.515 C.ar 0 **** 0
31266 C4 38.5091 85.1495 157.703 C.ar 0 **** 0
31267 C5 37.1768 85.5713 157.745 C.ar 0 **** -0.1268
31268 C6 36.3461 85.464 156.64 C.ar 0 **** 0
31269 C7 39.612 85.136 158.652 C.ar 0 **** 0
31270 C8 40.7008 84.5583 158.023 C.ar 0 **** 0
31271 C9 40.4111 84.1597 156.616 C.3 0 **** -0.106
31272 C10 41.8993 84.4012 158.71 C.ar 0 **** 0
31273 C11 42.0211 84.8234 160.05 C.ar 0 **** 0
31274 C12 40.8729 85.4176 160.642 C.ar 0 **** 0
31275 C13 39.6709 85.5884 159.947 C.ar 0 **** 0
31276 C14 38.4853 86.2207 160.62 C.3 0 **** -0.106
31277 C15 38.9316 87.2575 161.651 C.3 0 **** -0.106
31278 C16 39.7548 86.5439 162.689 C.3 0 **** -0.106
31279 C17 40.9833 85.8911 162.091 C.ar 0 **** 0
31280 C18 42.112 85.7275 162.828 C.ar 0 **** 0
31281 C19 43.2159 85.1308 162.286 C.ar 0 **** 0
31282 C20 43.2496 84.6566 160.78 C.ar 0 **** 0
31283 C21 44.3725 84.0961 160.049 C.ar 0 **** 0
31284 C22 44.1471 83.6778 158.733 C.ar 0 **** 0
31285 C23 42.9796 83.8186 158.067 C.ar 0 **** 0.042
31286 C24 44.4512 84.9272 163.152 C.3 0 **** -0.106
31287 C25 44.2841 85.1906 164.677 C.ar 0 **** 0
31288 C26 43.1606 85.8189 165.155 C.ar 0 **** 0
31289 C27 42.0407 86.2434 164.262 C.3 0 **** -0.106
31290 C28 43.0338 86.1024 166.514 C.ar 0 **** 0.042
31291 C29 44.0247 85.7833 167.426 C.ar 0 **** 0
31292 C30 45.1461 85.1391 166.926 C.ar 0 **** 0
31293 C31 45.2905 84.8418 165.574 C.ar 0 **** 0
31294 C32 46.3101 84.7276 167.842 C.ar 0 **** 0
31295 C33 46.1042 85.0874 169.317 C.3 0 **** -0.106
31296 C34 45.2597 86.3464 169.502 C.3 0 **** -0.106
31297 C35 43.8806 86.095 168.896 C.3 0 **** -0.106
31298 C36 46.5577 84.1347 165.136 C.ar 0 **** -0.1268
31299 C37 47.5177 83.8245 166.047 C.ar 0 **** 0.0265
31300 C38 47.4126 84.1082 167.353 C.ar 0 **** -0.1268
31301 C39 45.2931 83.0633 158.019 C.3 0 **** -0.106
31302 C40 46.3078 83.2192 159.104 C.ar 0 **** 0
31303 C41 45.7897 83.8033 160.262 C.ar 0 **** 0
31304 C42 46.7198 84.0169 161.301 C.ar 0 **** -0.1268
31305 C43 48.0688 83.621 161.187 C.ar 0 **** 0
31306 C44 48.5507 83.0149 160.007 C.ar 0 **** 0
31307 C45 47.6465 82.8252 158.95 C.ar 0 **** 0
31308 C46 48.1159 82.2504 157.748 C.ar 0 **** -0.1268
31309 C47 49.4352 81.8619 157.573 C.ar 0 **** 0
31310 C48 50.3098 82.0602 158.625 C.ar 0 **** -0.1268
31311 C49 49.9034 82.6287 159.844 C.ar 0 **** 0
31312 C50 50.794 82.8404 160.912 C.ar 0 **** 0.042
31313 C51 50.3522 83.425 162.083 C.ar 0 **** -0.1268
31314 C52 49.0237 83.8173 162.223 C.ar 0 **** -0.1268
31315 O53 36.0171 84.7742 154.364 O.3 0 **** -0.452
31316 C54 34.9 85.929 156.717 C.3 0 **** -0.159
31317 O55 42.8838 83.3961 156.794 O.3 0 **** -0.452
31318 C56 49.8003 81.2632 156.218 C.3 0 **** -0.106
31319 C57 51.2257 80.7015 156.178 C.3 0 **** -0.159
31320 O58 48.6262 83.2031 165.61 O.3 0 **** -0.4365
31321 O59 41.9238 86.7193 167.024 O.3 0 **** -0.452
31322 O60 52.1009 82.5132 160.888 O.3 0 **** -0.452
31323 H61 38.5814 84.0022 154.491 H 0 **** 0.1268
31324 H62 36.702 85.9986 158.639 H 0 **** 0.1268
31325 H63 41.0214 84.7001 155.87 H 0 **** 0.053
31326 H64 40.4937 83.0715 156.439 H 0 **** 0.053
31327 H65 37.8497 86.7406 159.909 H 0 **** 0.053
31328 H66 37.8711 85.4504 161.136 H 0 **** 0.053
31329 H67 39.5088 88.0762 161.156 H 0 **** 0.053
31330 H68 38.0333 87.7535 162.124 H 0 **** 0.053
31331 H69 40.0315 87.2694 163.463 H 0 **** 0.053
31332 H70 39.1249 85.7798 163.177 H 0 **** 0.053
31333 H71 44.7877 83.8763 163.029 H 0 **** 0.053
31334 H72 41.1071 85.866 164.692 H 0 **** 0.053
31335 H73 45.6092 84.2339 169.824 H 0 **** 0.053
31336 H74 47.0975 85.1964 169.774 H 0 **** 0.053
31337 H75 45.1697 86.583 170.57 H 0 **** 0.053
31338 H76 45.7451 87.2075 169.021 H 0 **** 0.053
31339 H77 43.3964 85.2462 169.398 H 0 **** 0.053
31340 H78 43.2423 86.9601 169.037 H 0 **** 0.053
31341 H79 46.6552 83.8824 164.097 H 0 **** 0.1268
31342 H80 48.1866 83.8485 168.057 H 0 **** 0.1268
31343 H81 45.1357 82.0004 157.777 H 0 **** 0.053
31344 H82 45.595 83.6208 157.118 H 0 **** 0.053
31345 H83 46.5022 84.5089 162.237 H 0 **** 0.1268
31346 H84 47.415 82.0958 156.908 H 0 **** 0.1268
31347 H85 51.3464 81.7619 158.49 H 0 **** 0.1268
31348 H86 51.0343 83.608 162.929 H 0 **** 0.1268
31349 H87 48.6828 84.3281 163.167 H 0 **** 0.1268
31350 H88 36.5134 84.3734 153.664 H 0 **** 0.41
31351 H89 34.5625 86.32 155.75 H 0 **** 0.053
31352 H90 34.7659 86.7347 157.452 H 0 **** 0.053
31353 H91 34.2382 85.0922 156.992 H 0 **** 0.053
31354 H92 43.7063 83.0215 156.511 H 0 **** 0.41
31355 H93 49.1024 80.4562 155.973 H 0 **** 0.053
31356 H94 51.4577 80.2654 155.186 H 0 **** 0.053
31357 H95 51.3719 79.9003 156.928 H 0 **** 0.053
31358 H96 51.9804 81.4885 156.364 H 0 **** 0.053
31359 H97 48.5498 82.9793 164.696 H 0 **** 0.41
31360 H98 41.3137 86.9147 166.331 H 0 **** 0.41
31361 H99 52.3155 82.1352 160.044 H 0 **** 0.41
31362 H100 45.2043 85.6608 162.799 H 0 **** 0.053
31363 H101 42.003 87.3383 164.222 H 0 **** 0.053
31364 H102 49.7013 82.0274 155.439 H 0 **** 0.053
31365 C1 23.3691 20.2042 119.233 C.ar 0 **** 0.042
31366 C2 22.938 18.8982 119.092 C.ar 0 **** -0.1268
31367 C3 23.1466 18.2079 117.91 C.ar 0 **** 0
31368 C4 23.7945 18.8111 116.831 C.ar 0 **** 0
31369 C5 24.2371 20.1282 116.987 C.ar 0 **** -0.1268
31370 C6 24.0218 20.8322 118.163 C.ar 0 **** 0
31371 C7 23.847 17.8306 115.757 C.ar 0 **** 0
31372 C8 23.249 16.6704 116.217 C.ar 0 **** 0
31373 C9 22.7456 16.7947 117.614 C.3 0 **** -0.106
31374 C10 23.175 15.5518 115.394 C.ar 0 **** 0
31375 C11 23.7062 15.5827 114.088 C.ar 0 **** 0
31376 C12 24.3003 16.8038 113.667 C.ar 0 **** 0
31377 C13 24.363 17.9337 114.49 C.ar 0 **** 0
31378 C14 25.004 19.2001 113.996 C.3 0 **** -0.106
31379 C15 24.8122 19.3563 112.487 C.3 0 **** -0.106
31380 C16 25.4773 18.1839 111.819 C.3 0 **** -0.106
31381 C17 24.8746 16.8643 112.252 C.ar 0 **** 0
31382 C18 24.8703 15.794 111.417 C.ar 0 **** 0
31383 C19 24.332 14.6026 111.815 C.ar 0 **** 0
31384 C20 23.6494 14.4306 113.228 C.ar 0 **** 0
31385 C21 22.9606 13.2617 113.746 C.ar 0 **** 0
31386 C22 22.4943 13.3145 115.064 C.ar 0 **** 0
31387 C23 22.5772 14.3962 115.87 C.ar 0 **** 0.042
31388 C24 24.3791 13.4115 110.869 C.3 0 **** -0.106
31389 C25 25.2659 13.5661 109.598 C.ar 0 **** 0
31390 C26 25.7553 14.7973 109.238 C.ar 0 **** 0
31391 C27 25.5016 16.0271 110.047 C.3 0 **** -0.106
31392 C28 26.5043 14.9456 108.072 C.ar 0 **** 0.042
31393 C29 26.7726 13.8797 107.231 C.ar 0 **** 0
31394 C30 26.2808 12.6426 107.618 C.ar 0 **** 0
31395 C31 25.5343 12.4717 108.781 C.ar 0 **** 0
31396 C32 26.5205 11.382 106.77 C.ar 0 **** 0
31397 C33 27.3364 11.6298 105.498 C.3 0 **** -0.106
31398 C34 27.1261 13.0309 104.927 C.3 0 **** -0.106
31399 C35 27.5845 14.0489 105.969 C.3 0 **** -0.106
31400 C36 25.0456 11.0755 109.109 C.ar 0 **** -0.1268
31401 C37 25.3252 10.0397 108.275 C.ar 0 **** 0.0265
31402 C38 26.0323 10.1731 107.144 C.ar 0 **** -0.1268
31403 C39 21.8364 12.094 115.593 C.3 0 **** -0.106
31404 C40 21.9193 11.2715 114.348 C.ar 0 **** 0
31405 C41 22.5595 11.9292 113.296 C.ar 0 **** 0
31406 C42 22.6207 11.2127 112.082 C.ar 0 **** -0.1268
31407 C43 22.1098 9.90345 111.962 C.ar 0 **** 0
31408 C44 21.4869 9.26412 113.055 C.ar 0 **** 0
31409 C45 21.3868 9.97527 114.261 C.ar 0 **** 0
31410 C46 20.738 9.36602 115.357 C.ar 0 **** -0.1268
31411 C47 20.1989 8.09036 115.29 C.ar 0 **** 0
31412 C48 20.3052 7.4086 114.092 C.ar 0 **** -0.1268
31413 C49 20.9378 7.96176 112.966 C.ar 0 **** 0
31414 C50 21.0392 7.27268 111.744 C.ar 0 **** 0.042
31415 C51 21.6477 7.86863 110.657 C.ar 0 **** -0.1268
31416 C52 22.1664 9.15726 110.752 C.ar 0 **** -0.1268
31417 O53 23.1677 20.8893 120.407 O.3 0 **** -0.452
31418 C54 24.5162 22.2635 118.304 C.3 0 **** -0.159
31419 O55 22.078 14.3382 117.117 O.3 0 **** -0.452
31420 C56 19.52 7.56444 116.55 C.3 0 **** -0.106
31421 C57 19.1159 6.09002 116.44 C.3 0 **** -0.159
31422 O58 24.8659 8.82186 108.605 O.3 0 **** -0.4365
31423 O59 27.013 16.1563 107.687 O.3 0 **** -0.452
31424 O60 20.5687 6.02783 111.533 O.3 0 **** -0.452
31425 H61 22.417 18.3635 119.92 H 0 **** 0.1268
31426 H62 24.7813 20.6824 116.211 H 0 **** 0.1268
31427 H63 21.6493 16.6848 117.7 H 0 **** 0.053
31428 H64 23.2394 16.1066 118.325 H 0 **** 0.053
31429 H65 24.5653 20.0792 114.459 H 0 **** 0.053
31430 H66 26.0945 19.1985 114.215 H 0 **** 0.053
31431 H67 23.7248 19.4138 112.236 H 0 **** 0.053
31432 H68 25.2643 20.3291 112.132 H 0 **** 0.053
31433 H69 25.395 18.3174 110.733 H 0 **** 0.053
31434 H70 26.5544 18.2013 112.062 H 0 **** 0.053
31435 H71 24.7582 12.5361 111.436 H 0 **** 0.053
31436 H72 26.4634 16.5209 110.218 H 0 **** 0.053
31437 H73 28.4106 11.485 105.732 H 0 **** 0.053
31438 H74 27.0615 10.8531 104.77 H 0 **** 0.053
31439 H75 27.7019 13.1485 104.001 H 0 **** 0.053
31440 H76 26.0683 13.1863 104.671 H 0 **** 0.053
31441 H77 28.6472 13.8989 106.203 H 0 **** 0.053
31442 H78 27.4778 15.0575 105.585 H 0 **** 0.053
31443 H79 24.4914 10.9414 110.018 H 0 **** 0.1268
31444 H80 26.244 9.33167 106.503 H 0 **** 0.1268
31445 H81 22.3947 11.6205 116.415 H 0 **** 0.053
31446 H82 20.7868 12.2565 115.886 H 0 **** 0.053
31447 H83 23.0255 11.5944 111.156 H 0 **** 0.1268
31448 H84 20.6502 9.91598 116.312 H 0 **** 0.1268
31449 H85 19.8777 6.41084 114.034 H 0 **** 0.1268
31450 H86 21.7292 7.35248 109.687 H 0 **** 0.1268
31451 H87 22.6266 9.64844 109.849 H 0 **** 0.1268
31452 H88 22.7 20.3157 121 H 0 **** 0.41
31453 H89 23.8433 22.8492 118.942 H 0 **** 0.053
31454 H90 24.5659 22.778 117.335 H 0 **** 0.053
31455 H91 25.5183 22.2836 118.762 H 0 **** 0.053
31456 H92 21.6992 13.486 117.283 H 0 **** 0.41
31457 H93 20.1951 7.67666 117.405 H 0 **** 0.053
31458 H94 18.6357 5.73452 117.373 H 0 **** 0.053
31459 H95 19.9911 5.43759 116.257 H 0 **** 0.053
31460 H96 18.3874 5.92538 115.624 H 0 **** 0.053
31461 H97 24.453 8.83178 109.454 H 0 **** 0.41
31462 H98 26.771 16.8239 108.309 H 0 **** 0.41
31463 H99 20.1397 5.71546 112.32 H 0 **** 0.41
31464 H100 23.3436 13.2653 110.499 H 0 **** 0.053
31465 H101 24.844 16.7019 109.487 H 0 **** 0.053
31466 H102 18.6254 8.16121 116.762 H 0 **** 0.053
31467 C1 0.0921034 15.4518 129.625 C.ar 0 **** 0.042
31468 C2 0.336796 15.9095 128.344 C.ar 0 **** -0.1268
31469 C3 1.57041 15.7115 127.746 C.ar 0 **** 0
31470 C4 2.59675 15.0476 128.419 C.ar 0 **** 0
31471 C5 2.33475 14.577 129.71 C.ar 0 **** -0.1268
31472 C6 1.10715 14.7813 130.322 C.ar 0 **** 0
31473 C7 3.74549 15.0125 127.527 C.ar 0 **** 0
31474 C8 3.38084 15.6365 126.347 C.ar 0 **** 0
31475 C9 1.97905 16.1414 126.37 C.3 0 **** -0.106
31476 C10 4.29093 15.7318 125.3 C.ar 0 **** 0
31477 C11 5.58975 15.1957 125.424 C.ar 0 **** 0
31478 C12 5.91102 14.5741 126.662 C.ar 0 **** 0
31479 C13 4.99994 14.4899 127.72 C.ar 0 **** 0
31480 C14 5.38949 13.8197 129.008 C.3 0 **** -0.106
31481 C15 6.88114 14.0023 129.289 C.3 0 **** -0.106
31482 C16 7.64003 13.3606 128.159 C.3 0 **** -0.106
31483 C17 7.31489 13.9935 126.823 C.ar 0 **** 0
31484 C18 8.23366 14.0181 125.823 C.ar 0 **** 0
31485 C19 7.93342 14.5835 124.616 C.ar 0 **** 0
31486 C20 6.53917 15.2745 124.346 C.ar 0 **** 0
31487 C21 6.11736 15.9901 123.155 C.ar 0 **** 0
31488 C22 4.80022 16.4596 123.112 C.ar 0 **** 0
31489 C23 3.91011 16.3563 124.124 C.ar 0 **** 0.042
31490 C24 8.97181 14.5591 123.504 C.3 0 **** -0.106
31491 C25 10.2239 13.6651 123.741 C.ar 0 **** 0
31492 C26 10.4841 13.1476 124.986 C.ar 0 **** 0
31493 C27 9.57906 13.377 126.152 C.3 0 **** -0.106
31494 C28 11.6328 12.3918 125.211 C.ar 0 **** 0.042
31495 C29 12.5567 12.144 124.21 C.ar 0 **** 0
31496 C30 12.2713 12.6647 122.958 C.ar 0 **** 0
31497 C31 11.127 13.4185 122.71 C.ar 0 **** 0
31498 C32 13.2169 12.4504 121.765 C.ar 0 **** 0
31499 C33 14.464 11.6241 122.095 C.3 0 **** -0.106
31500 C34 14.9206 11.8012 123.542 C.3 0 **** -0.106
31501 C35 13.7995 11.3242 124.462 C.3 0 **** -0.106
31502 C36 10.9129 13.9399 121.304 C.ar 0 **** -0.1268
31503 C37 11.8283 13.6821 120.333 C.ar 0 **** 0.0265
31504 C38 12.9433 12.9678 120.541 C.ar 0 **** -0.1268
31505 C39 4.37267 17.1457 121.868 C.3 0 **** -0.106
31506 C40 5.6792 17.0768 121.147 C.ar 0 **** 0
31507 C41 6.67416 16.4189 121.872 C.ar 0 **** 0
31508 C42 7.94122 16.3695 121.255 C.ar 0 **** -0.1268
31509 C43 8.16719 16.9087 119.971 C.ar 0 **** 0
31510 C44 7.13018 17.5491 119.26 C.ar 0 **** 0
31511 C45 5.87056 17.6373 119.874 C.ar 0 **** 0
31512 C46 4.82801 18.3031 119.193 C.ar 0 **** -0.1268
31513 C47 4.99822 18.8697 117.939 C.ar 0 **** 0
31514 C48 6.24718 18.7746 117.354 C.ar 0 **** -0.1268
31515 C49 7.32417 18.1271 117.982 C.ar 0 **** 0
31516 C50 8.5979 18.0392 117.392 C.ar 0 **** 0.042
31517 C51 9.63195 17.4122 118.059 C.ar 0 **** -0.1268
31518 C52 9.43266 16.8643 119.323 C.ar 0 **** -0.1268
31519 O53 -1.13136 15.6438 130.222 O.3 0 **** -0.452
31520 C54 0.850827 14.2551 131.725 C.3 0 **** -0.159
31521 O55 2.67297 16.8614 123.977 O.3 0 **** -0.452
31522 C56 3.78555 19.5638 117.329 C.3 0 **** -0.106
31523 C57 4.01439 19.9996 115.877 C.3 0 **** -0.159
31524 O58 11.5994 14.1719 119.103 O.3 0 **** -0.4365
31525 O59 11.9185 11.856 126.437 O.3 0 **** -0.452
31526 O60 8.91131 18.5424 116.182 O.3 0 **** -0.452
31527 H61 -0.445174 16.4431 127.756 H 0 **** 0.1268
31528 H62 3.06257 14.0166 130.312 H 0 **** 0.1268
31529 H63 1.90423 17.2401 126.278 H 0 **** 0.053
31530 H64 1.32504 15.6647 125.617 H 0 **** 0.053
31531 H65 4.85782 14.2404 129.857 H 0 **** 0.053
31532 H66 5.16874 12.7303 128.965 H 0 **** 0.053
31533 H67 7.12869 15.0872 129.39 H 0 **** 0.053
31534 H68 7.156 13.5276 130.277 H 0 **** 0.053
31535 H69 8.71159 13.4362 128.381 H 0 **** 0.053
31536 H70 7.39452 12.2843 128.134 H 0 **** 0.053
31537 H71 8.47545 14.2009 122.578 H 0 **** 0.053
31538 H72 9.3668 12.4052 126.609 H 0 **** 0.053
31539 H73 14.2391 10.5541 121.909 H 0 **** 0.053
31540 H74 15.2515 11.9128 121.385 H 0 **** 0.053
31541 H75 15.8332 11.2193 123.72 H 0 **** 0.053
31542 H76 15.165 12.8545 123.74 H 0 **** 0.053
31543 H77 13.5766 10.2658 124.27 H 0 **** 0.053
31544 H78 14.101 11.4069 125.5 H 0 **** 0.053
31545 H79 10.0175 14.4984 121.109 H 0 **** 0.1268
31546 H80 13.6493 12.772 119.75 H 0 **** 0.1268
31547 H81 3.58976 16.6004 121.318 H 0 **** 0.053
31548 H82 4.069 18.1924 122.029 H 0 **** 0.053
31549 H83 8.8327 15.9526 121.7 H 0 **** 0.1268
31550 H84 3.83181 18.381 119.666 H 0 **** 0.1268
31551 H85 6.38612 19.2223 116.373 H 0 **** 0.1268
31552 H86 10.64 17.3369 117.619 H 0 **** 0.1268
31553 H87 10.2926 16.389 119.874 H 0 **** 0.1268
31554 H88 -1.68558 16.1115 129.611 H 0 **** 0.41
31555 H89 0.169147 14.9165 132.273 H 0 **** 0.053
31556 H90 1.77582 14.1901 132.315 H 0 **** 0.053
31557 H91 0.391389 13.2545 131.686 H 0 **** 0.053
31558 H92 2.57586 17.2563 123.122 H 0 **** 0.41
31559 H93 2.92386 18.8889 117.357 H 0 **** 0.053
31560 H94 3.11365 20.4903 115.458 H 0 **** 0.053
31561 H95 4.24793 19.1379 115.223 H 0 **** 0.053
31562 H96 4.84224 20.7284 115.794 H 0 **** 0.053
31563 H97 10.7472 14.5743 119.049 H 0 **** 0.41
31564 H98 11.2445 12.0836 127.057 H 0 **** 0.41
31565 H99 8.14619 18.9593 115.807 H 0 **** 0.41
31566 H100 9.35347 15.5963 123.411 H 0 **** 0.053
31567 H101 10.0844 14.0177 126.884 H 0 **** 0.053
31568 H102 3.5277 20.4457 117.926 H 0 **** 0.053
31569 C1 29.6128 79.8156 164.508 C.ar 0 **** 0.042
31570 C2 30.7558 80.109 165.229 C.ar 0 **** -0.1268
31571 C3 31.2218 79.2393 166.201 C.ar 0 **** 0
31572 C4 30.5521 78.0467 166.478 C.ar 0 **** 0
31573 C5 29.4072 77.7512 165.732 C.ar 0 **** -0.1268
31574 C6 28.9251 78.6215 164.765 C.ar 0 **** 0
31575 C7 31.2866 77.3769 167.54 C.ar 0 **** 0
31576 C8 32.3757 78.1678 167.862 C.ar 0 **** 0
31577 C9 32.44 79.4185 167.055 C.3 0 **** -0.106
31578 C10 33.2686 77.7565 168.846 C.ar 0 **** 0
31579 C11 33.0796 76.5341 169.524 C.ar 0 **** 0
31580 C12 31.9395 75.7676 169.157 C.ar 0 **** 0
31581 C13 31.0334 76.1878 168.177 C.ar 0 **** 0
31582 C14 29.8451 75.3378 167.825 C.3 0 **** -0.106
31583 C15 29.3532 74.5566 169.044 C.3 0 **** -0.106
31584 C16 30.4744 73.6594 169.493 C.3 0 **** -0.106
31585 C17 31.7093 74.4436 169.884 C.ar 0 **** 0
31586 C18 32.5673 73.9675 170.822 C.ar 0 **** 0
31587 C19 33.685 74.6747 171.166 C.ar 0 **** 0
31588 C20 34.0007 76.0873 170.534 C.ar 0 **** 0
31589 C21 35.0917 76.9861 170.867 C.ar 0 **** 0
31590 C22 35.2154 78.1618 170.119 C.ar 0 **** 0
31591 C23 34.3563 78.5571 169.154 C.ar 0 **** 0.042
31592 C24 34.6466 74.0943 172.193 C.3 0 **** -0.106
31593 C25 34.4161 72.6099 172.601 C.ar 0 **** 0
31594 C26 33.2583 71.9624 172.246 C.ar 0 **** 0
31595 C27 32.1919 72.6201 171.433 C.3 0 **** -0.106
31596 C28 33.0282 70.6509 172.657 C.ar 0 **** 0.042
31597 C29 33.9338 69.9567 173.44 C.ar 0 **** 0
31598 C30 35.1017 70.6226 173.779 C.ar 0 **** 0
31599 C31 35.3536 71.9312 173.375 C.ar 0 **** 0
31600 C32 36.1868 69.954 174.638 C.ar 0 **** 0
31601 C33 35.8535 68.5203 175.063 C.3 0 **** -0.106
31602 C34 34.353 68.2895 175.228 C.3 0 **** -0.106
31603 C35 33.677 68.5357 173.881 C.3 0 **** -0.106
31604 C36 36.663 72.5639 173.801 C.ar 0 **** -0.1268
31605 C37 37.5426 71.8649 174.566 C.ar 0 **** 0.0265
31606 C38 37.3252 70.6081 174.978 C.ar 0 **** -0.1268
31607 C39 36.3639 79.0441 170.441 C.3 0 **** -0.106
31608 C40 36.918 78.2407 171.573 C.ar 0 **** 0
31609 C41 36.2005 77.0683 171.818 C.ar 0 **** 0
31610 C42 36.6551 76.2975 172.908 C.ar 0 **** -0.1268
31611 C43 37.7863 76.6687 173.664 C.ar 0 **** 0
31612 C44 38.4978 77.852 173.373 C.ar 0 **** 0
31613 C45 38.0395 78.6491 172.312 C.ar 0 **** 0
31614 C46 38.7177 79.8538 172.025 C.ar 0 **** -0.1268
31615 C47 39.8222 80.2787 172.748 C.ar 0 **** 0
31616 C48 40.2552 79.4808 173.79 C.ar 0 **** -0.1268
31617 C49 39.6209 78.2729 174.126 C.ar 0 **** 0
31618 C50 40.0536 77.4659 175.193 C.ar 0 **** 0.042
31619 C51 39.3836 76.2978 175.499 C.ar 0 **** -0.1268
31620 C52 38.2694 75.9047 174.762 C.ar 0 **** -0.1268
31621 O53 29.1455 80.679 163.546 O.3 0 **** -0.452
31622 C54 27.6787 78.2702 163.967 C.3 0 **** -0.159
31623 O55 34.5662 79.7187 168.51 O.3 0 **** -0.452
31624 C56 40.448 81.6049 172.329 C.3 0 **** -0.106
31625 C57 41.761 81.9035 173.062 C.3 0 **** -0.159
31626 O58 38.6869 72.4699 174.924 O.3 0 **** -0.4365
31627 O59 31.8889 69.9745 172.314 O.3 0 **** -0.452
31628 O60 41.1085 77.7506 175.982 O.3 0 **** -0.452
31629 H61 31.3353 81.0433 165.049 H 0 **** 0.1268
31630 H62 28.8277 76.8257 165.85 H 0 **** 0.1268
31631 H63 32.3477 80.3385 167.66 H 0 **** 0.053
31632 H64 33.3406 79.4873 166.417 H 0 **** 0.053
31633 H65 29.0088 75.9397 167.482 H 0 **** 0.053
31634 H66 30.1054 74.6133 167.022 H 0 **** 0.053
31635 H67 29.0329 75.2576 169.854 H 0 **** 0.053
31636 H68 28.4371 73.9506 168.779 H 0 **** 0.053
31637 H69 30.1115 73.0522 170.332 H 0 **** 0.053
31638 H70 30.7186 72.9596 168.675 H 0 **** 0.053
31639 H71 35.6757 74.1726 171.783 H 0 **** 0.053
31640 H72 31.9422 71.9516 170.603 H 0 **** 0.053
31641 H73 36.2509 67.8228 174.298 H 0 **** 0.053
31642 H74 36.3981 68.3147 175.995 H 0 **** 0.053
31643 H75 34.1671 67.2624 175.566 H 0 **** 0.053
31644 H76 33.9443 68.9608 175.997 H 0 **** 0.053
31645 H77 34.0777 67.8467 173.126 H 0 **** 0.053
31646 H78 32.611 68.3509 173.954 H 0 **** 0.053
31647 H79 36.8672 73.5632 173.467 H 0 **** 0.1268
31648 H80 38.0446 70.0742 175.579 H 0 **** 0.1268
31649 H81 37.0944 79.1246 169.621 H 0 **** 0.053
31650 H82 36.061 80.0464 170.784 H 0 **** 0.053
31651 H83 36.1825 75.3965 173.271 H 0 **** 0.1268
31652 H84 38.3665 80.4913 171.193 H 0 **** 0.1268
31653 H85 41.1177 79.8129 174.362 H 0 **** 0.1268
31654 H86 39.7009 75.6528 176.335 H 0 **** 0.1268
31655 H87 37.7076 74.9699 175.045 H 0 **** 0.1268
31656 H88 29.7469 81.4088 163.491 H 0 **** 0.41
31657 H89 27.1127 79.1723 163.707 H 0 **** 0.053
31658 H90 26.9999 77.6175 164.533 H 0 **** 0.053
31659 H91 27.9499 77.7609 163.028 H 0 **** 0.053
31660 H92 35.3443 80.1435 168.844 H 0 **** 0.41
31661 H93 40.6462 81.5938 171.253 H 0 **** 0.053
31662 H94 42.1963 82.8665 172.729 H 0 **** 0.053
31663 H95 42.5219 81.1219 172.873 H 0 **** 0.053
31664 H96 41.6115 81.9812 174.155 H 0 **** 0.053
31665 H97 38.7735 73.3121 174.507 H 0 **** 0.41
31666 H98 31.3271 70.5258 171.794 H 0 **** 0.41
31667 H99 41.4979 78.5697 175.703 H 0 **** 0.41
31668 H100 34.5093 74.688 173.119 H 0 **** 0.053
31669 H101 31.302 72.7719 172.055 H 0 **** 0.053
31670 H102 39.7424 82.421 172.522 H 0 **** 0.053
31671 C1 18.0717 71.2973 171.889 C.ar 0 **** 0.042
31672 C2 17.1578 71.5833 170.891 C.ar 0 **** -0.1268
31673 C3 17.5592 72.2083 169.722 C.ar 0 **** 0
31674 C4 18.8929 72.5663 169.52 C.ar 0 **** 0
31675 C5 19.8118 72.2597 170.528 C.ar 0 **** -0.1268
31676 C6 19.4178 71.6452 171.708 C.ar 0 **** 0
31677 C7 18.9762 73.2003 168.213 C.ar 0 **** 0
31678 C8 17.707 73.1948 167.662 C.ar 0 **** 0
31679 C9 16.6904 72.5747 168.558 C.3 0 **** -0.106
31680 C10 17.496 73.7288 166.395 C.ar 0 **** 0
31681 C11 18.5658 74.2787 165.658 C.ar 0 **** 0
31682 C12 19.8452 74.2652 166.279 C.ar 0 **** 0
31683 C13 20.0552 73.7398 167.558 C.ar 0 **** 0
31684 C14 21.4294 73.747 168.167 C.3 0 **** -0.106
31685 C15 22.2313 74.9584 167.691 C.3 0 **** -0.106
31686 C16 22.3645 74.8595 166.196 C.3 0 **** -0.106
31687 C17 21.0182 74.8632 165.504 C.ar 0 **** 0
31688 C18 20.8843 75.3604 164.247 C.ar 0 **** 0
31689 C19 19.669 75.3541 163.622 C.ar 0 **** 0
31690 C20 18.3674 74.8231 164.342 C.ar 0 **** 0
31691 C21 17.0044 74.8399 163.84 C.ar 0 **** 0
31692 C22 16.0149 74.2439 164.629 C.ar 0 **** 0
31693 C23 16.2204 73.713 165.855 C.ar 0 **** 0.042
31694 C24 19.561 75.8827 162.199 C.3 0 **** -0.106
31695 C25 20.9007 76.1673 161.459 C.ar 0 **** 0
31696 C26 22.0874 76.1847 162.15 C.ar 0 **** 0
31697 C27 22.1638 75.9008 163.615 C.3 0 **** -0.106
31698 C28 23.28 76.4911 161.498 C.ar 0 **** 0.042
31699 C29 23.321 76.8024 160.15 C.ar 0 **** 0
31700 C30 22.1152 76.7686 159.467 C.ar 0 **** 0
31701 C31 20.913 76.4595 160.098 C.ar 0 **** 0
31702 C32 22.0338 77.0872 157.965 C.ar 0 **** 0
31703 C33 23.3824 77.4304 157.324 C.3 0 **** -0.106
31704 C34 24.344 78.1026 158.302 C.3 0 **** -0.106
31705 C35 24.6174 77.1345 159.451 C.3 0 **** -0.106
31706 C36 19.6531 76.4511 159.256 C.ar 0 **** -0.1268
31707 C37 19.7136 76.7538 157.932 C.ar 0 **** 0.0265
31708 C38 20.8531 77.0638 157.298 C.ar 0 **** -0.1268
31709 C39 14.6371 74.2279 164.079 C.3 0 **** -0.106
31710 C40 14.9207 74.975 162.817 C.ar 0 **** 0
31711 C41 16.2652 75.3233 162.674 C.ar 0 **** 0
31712 C42 16.5769 76.073 161.521 C.ar 0 **** -0.1268
31713 C43 15.5997 76.4033 160.559 C.ar 0 **** 0
31714 C44 14.2536 76.0157 160.729 C.ar 0 **** 0
31715 C45 13.9187 75.2977 161.888 C.ar 0 **** 0
31716 C46 12.5713 74.9289 162.093 C.ar 0 **** -0.1268
31717 C47 11.5658 75.2443 161.192 C.ar 0 **** 0
31718 C48 11.9164 75.9546 160.059 C.ar 0 **** -0.1268
31719 C49 13.2388 76.3518 159.8 C.ar 0 **** 0
31720 C50 13.595 77.0837 158.653 C.ar 0 **** 0.042
31721 C51 14.9052 77.4715 158.454 C.ar 0 **** -0.1268
31722 C52 15.8901 77.1506 159.384 C.ar 0 **** -0.1268
31723 O53 17.6776 70.6771 173.05 O.3 0 **** -0.452
31724 C54 20.4419 71.3217 172.785 C.3 0 **** -0.159
31725 O55 15.1883 73.1814 166.533 O.3 0 **** -0.452
31726 C56 10.1554 74.788 161.549 C.3 0 **** -0.106
31727 C57 9.1476 75.0213 160.418 C.3 0 **** -0.159
31728 O58 18.5692 76.7413 157.229 O.3 0 **** -0.4365
31729 O59 24.4806 76.5083 162.154 O.3 0 **** -0.452
31730 O60 12.7278 77.4613 157.693 O.3 0 **** -0.452
31731 H61 16.0805 71.3175 170.995 H 0 **** 0.1268
31732 H62 20.8875 72.4708 170.455 H 0 **** 0.1268
31733 H63 15.8998 73.2763 168.88 H 0 **** 0.053
31734 H64 16.224 71.6657 168.135 H 0 **** 0.053
31735 H65 21.3885 73.806 169.251 H 0 **** 0.053
31736 H66 21.9855 72.8239 167.891 H 0 **** 0.053
31737 H67 21.7239 75.9038 168.002 H 0 **** 0.053
31738 H68 23.2475 74.9704 168.185 H 0 **** 0.053
31739 H69 22.9881 75.6931 165.851 H 0 **** 0.053
31740 H70 22.9092 73.9308 165.95 H 0 **** 0.053
31741 H71 18.998 75.1387 161.597 H 0 **** 0.053
31742 H72 22.9408 75.1456 163.77 H 0 **** 0.053
31743 H73 23.8408 76.4958 156.942 H 0 **** 0.053
31744 H74 23.1835 78.0681 156.452 H 0 **** 0.053
31745 H75 25.2795 78.3596 157.79 H 0 **** 0.053
31746 H76 23.9138 79.0416 158.679 H 0 **** 0.053
31747 H77 25.066 76.2084 159.066 H 0 **** 0.053
31748 H78 25.3226 77.568 160.151 H 0 **** 0.053
31749 H79 18.7315 76.1871 159.738 H 0 **** 0.1268
31750 H80 20.8738 77.2926 156.244 H 0 **** 0.1268
31751 H81 14.2672 73.2134 163.862 H 0 **** 0.053
31752 H82 13.9119 74.7744 164.703 H 0 **** 0.053
31753 H83 17.5523 76.4733 161.286 H 0 **** 0.1268
31754 H84 12.294 74.3648 163.002 H 0 **** 0.1268
31755 H85 11.13 76.2084 159.352 H 0 **** 0.1268
31756 H86 15.2065 78.051 157.566 H 0 **** 0.1268
31757 H87 16.9484 77.5048 159.231 H 0 **** 0.1268
31758 H88 16.7459 70.511 172.994 H 0 **** 0.41
31759 H89 19.9961 71.3966 173.783 H 0 **** 0.053
31760 H90 21.2946 72.0144 172.762 H 0 **** 0.053
31761 H91 20.8229 70.2954 172.661 H 0 **** 0.053
31762 H92 14.3894 73.2527 166.029 H 0 **** 0.41
31763 H93 10.1655 73.7201 161.791 H 0 **** 0.053
31764 H94 8.13603 74.6704 160.703 H 0 **** 0.053
31765 H95 9.43212 74.4769 159.497 H 0 **** 0.053
31766 H96 9.05438 76.0947 160.168 H 0 **** 0.053
31767 H97 17.8518 76.4205 157.752 H 0 **** 0.41
31768 H98 24.3571 76.3039 163.067 H 0 **** 0.41
31769 H99 11.8571 77.1602 157.92 H 0 **** 0.41
31770 H100 19.0397 76.8592 162.268 H 0 **** 0.053
31771 H101 22.4389 76.8179 164.149 H 0 **** 0.053
31772 H102 9.81259 75.3205 162.444 H 0 **** 0.053
31773 C1 29.2842 38.9779 179.385 C.ar 0 **** 0.042
31774 C2 30.1949 37.9413 179.472 C.ar 0 **** -0.1268
31775 C3 30.4843 37.1599 178.365 C.ar 0 **** 0
31776 C4 29.8655 37.3968 177.137 C.ar 0 **** 0
31777 C5 28.9567 38.4561 177.056 C.ar 0 **** -0.1268
31778 C6 28.6507 39.2361 178.161 C.ar 0 **** 0
31779 C7 30.3787 36.4105 176.198 C.ar 0 **** 0
31780 C8 31.2937 35.6227 176.875 C.ar 0 **** 0
31781 C9 31.4472 36.0134 178.305 C.3 0 **** -0.106
31782 C10 31.9577 34.5988 176.208 C.ar 0 **** 0
31783 C11 31.7122 34.352 174.841 C.ar 0 **** 0
31784 C12 30.756 35.187 174.201 C.ar 0 **** 0
31785 C13 30.0772 36.2082 174.875 C.ar 0 **** 0
31786 C14 29.0769 37.0643 174.15 C.3 0 **** -0.106
31787 C15 28.3743 36.2697 173.049 C.3 0 **** -0.106
31788 C16 29.4247 35.8182 172.071 C.3 0 **** -0.106
31789 C17 30.466 34.9325 172.722 C.ar 0 **** 0
31790 C18 31.1119 33.9766 172.006 C.ar 0 **** 0
31791 C19 32.0565 33.1846 172.596 C.ar 0 **** 0
31792 C20 32.4 33.3057 174.133 C.ar 0 **** 0
31793 C21 33.3059 32.4775 174.909 C.ar 0 **** 0
31794 C22 33.5087 32.8186 176.251 C.ar 0 **** 0
31795 C23 32.8722 33.8198 176.898 C.ar 0 **** 0.042
31796 C24 32.7901 32.1496 171.756 C.3 0 **** -0.106
31797 C25 32.5877 32.2342 170.214 C.ar 0 **** 0
31798 C26 31.6022 33.0304 169.685 C.ar 0 **** 0
31799 C27 30.7103 33.8722 170.537 C.3 0 **** -0.106
31800 C28 31.3861 33.066 168.309 C.ar 0 **** 0.042
31801 C29 32.1322 32.302 167.428 C.ar 0 **** 0
31802 C30 33.1297 31.5129 167.98 C.ar 0 **** 0
31803 C31 33.3656 31.4666 169.352 C.ar 0 **** 0
31804 C32 34.0295 30.6266 167.103 C.ar 0 **** 0
31805 C33 33.721 30.7129 165.606 C.3 0 **** -0.106
31806 C34 32.2472 30.9941 165.324 C.3 0 **** -0.106
31807 C35 31.8919 32.3463 165.938 C.3 0 **** -0.106
31808 C36 34.4824 30.5706 169.848 C.ar 0 **** -0.1268
31809 C37 35.2077 29.8316 168.967 C.ar 0 **** 0.0265
31810 C38 34.9992 29.8474 167.643 C.ar 0 **** -0.1268
31811 C39 34.4741 31.9909 177.015 C.3 0 **** -0.106
31812 C40 34.8066 31.0227 175.927 C.ar 0 **** 0
31813 C41 34.1474 31.2954 174.727 C.ar 0 **** 0
31814 C42 34.3904 30.3804 173.682 C.ar 0 **** -0.1268
31815 C43 35.2771 29.2938 173.832 C.ar 0 **** 0
31816 C44 35.9414 29.0628 175.055 C.ar 0 **** 0
31817 C45 35.685 29.9444 176.117 C.ar 0 **** 0
31818 C46 36.3115 29.7111 177.361 C.ar 0 **** -0.1268
31819 C47 37.1722 28.6457 177.574 C.ar 0 **** 0
31820 C48 37.4121 27.7899 176.515 C.ar 0 **** -0.1268
31821 C49 36.8175 27.9682 175.254 C.ar 0 **** 0
31822 C50 37.0473 27.0902 174.18 C.ar 0 **** 0.042
31823 C51 36.4188 27.2929 172.967 C.ar 0 **** -0.1268
31824 C52 35.5455 28.3626 172.791 C.ar 0 **** -0.1268
31825 O53 28.995 39.7568 180.48 O.3 0 **** -0.452
31826 C54 27.6598 40.3838 178.042 C.3 0 **** -0.159
31827 O55 33.1309 34.0429 178.198 O.3 0 **** -0.452
31828 C56 37.7622 28.5137 178.974 C.3 0 **** -0.106
31829 C57 38.8194 27.4151 179.063 C.3 0 **** -0.159
31830 O58 36.1831 29.0474 169.455 O.3 0 **** -0.4365
31831 O59 30.418 33.854 167.748 O.3 0 **** -0.452
31832 O60 37.8586 26.0154 174.238 O.3 0 **** -0.452
31833 H61 30.7229 37.7081 180.425 H 0 **** 0.1268
31834 H62 28.4402 38.7452 176.131 H 0 **** 0.1268
31835 H63 31.1412 35.2229 179.013 H 0 **** 0.053
31836 H64 32.4646 36.362 178.561 H 0 **** 0.053
31837 H65 28.3007 37.4275 174.817 H 0 **** 0.053
31838 H66 29.5763 37.9439 173.687 H 0 **** 0.053
31839 H67 27.8173 35.4056 173.487 H 0 **** 0.053
31840 H68 27.5985 36.9111 172.536 H 0 **** 0.053
31841 H69 28.9228 35.2964 171.247 H 0 **** 0.053
31842 H70 29.9103 36.7093 171.636 H 0 **** 0.053
31843 H71 33.8774 32.2517 171.956 H 0 **** 0.053
31844 H72 30.718 34.8886 170.131 H 0 **** 0.053
31845 H73 34.3416 31.5168 165.161 H 0 **** 0.053
31846 H74 34.0462 29.7716 165.145 H 0 **** 0.053
31847 H75 32.0686 31.0081 164.242 H 0 **** 0.053
31848 H76 31.6159 30.1989 165.746 H 0 **** 0.053
31849 H77 32.5139 33.1372 165.497 H 0 **** 0.053
31850 H78 30.8573 32.5962 165.731 H 0 **** 0.053
31851 H79 34.6809 30.5569 170.902 H 0 **** 0.1268
31852 H80 35.5959 29.2568 166.966 H 0 **** 0.1268
31853 H81 35.3694 32.5486 177.333 H 0 **** 0.053
31854 H82 34.0202 31.4733 177.875 H 0 **** 0.053
31855 H83 33.9195 30.4088 172.71 H 0 **** 0.1268
31856 H84 36.1198 30.3976 178.206 H 0 **** 0.1268
31857 H85 38.0854 26.9529 176.677 H 0 **** 0.1268
31858 H86 36.5796 26.6153 172.112 H 0 **** 0.1268
31859 H87 35.0096 28.4975 171.808 H 0 **** 0.1268
31860 H88 29.5116 39.4432 181.21 H 0 **** 0.41
31861 H89 27.1015 40.5176 178.976 H 0 **** 0.053
31862 H90 26.9197 40.2068 177.249 H 0 **** 0.053
31863 H91 28.1848 41.3276 177.824 H 0 **** 0.053
31864 H92 33.7854 33.4348 178.513 H 0 **** 0.41
31865 H93 38.2252 29.4638 179.266 H 0 **** 0.053
31866 H94 39.267 27.3632 180.074 H 0 **** 0.053
31867 H95 39.63 27.6136 178.348 H 0 **** 0.053
31868 H96 38.4107 26.4167 178.834 H 0 **** 0.053
31869 H97 36.3012 29.1859 170.381 H 0 **** 0.41
31870 H98 29.9534 34.3265 168.419 H 0 **** 0.41
31871 H99 38.2311 25.9548 175.107 H 0 **** 0.41
31872 H100 32.3906 31.1605 172.059 H 0 **** 0.053
31873 H101 29.6892 33.4751 170.498 H 0 **** 0.053
31874 H102 36.9657 28.3009 179.696 H 0 **** 0.053
31875 C1 37.9093 27.3626 146.594 C.ar 0 **** 0.042
31876 C2 37.1441 26.4082 147.238 C.ar 0 **** -0.1268
31877 C3 37.1972 25.0795 146.85 C.ar 0 **** 0
31878 C4 38.0214 24.6701 145.801 C.ar 0 **** 0
31879 C5 38.8013 25.6408 145.165 C.ar 0 **** -0.1268
31880 C6 38.7458 26.9755 145.538 C.ar 0 **** 0
31881 C7 37.8413 23.2348 145.646 C.ar 0 **** 0
31882 C8 36.9341 22.8189 146.605 C.ar 0 **** 0
31883 C9 36.4362 23.9383 147.453 C.3 0 **** -0.106
31884 C10 36.5857 21.4759 146.697 C.ar 0 **** 0
31885 C11 37.1495 20.5239 145.822 C.ar 0 **** 0
31886 C12 38.0685 21.01 144.853 C.ar 0 **** 0
31887 C13 38.4089 22.3634 144.75 C.ar 0 **** 0
31888 C14 39.388 22.8251 143.708 C.3 0 **** -0.106
31889 C15 39.2984 21.9571 142.452 C.3 0 **** -0.106
31890 C16 39.6404 20.5463 142.848 C.3 0 **** -0.106
31891 C17 38.6857 19.999 143.888 C.ar 0 **** 0
31892 C18 38.4179 18.6695 143.955 C.ar 0 **** 0
31893 C19 37.5613 18.1788 144.899 C.ar 0 **** 0
31894 C20 36.8094 19.129 145.913 C.ar 0 **** 0
31895 C21 35.8098 18.7629 146.9 C.ar 0 **** 0
31896 C22 35.3308 19.771 147.744 C.ar 0 **** 0
31897 C23 35.6784 21.0743 147.664 C.ar 0 **** 0.042
31898 C24 37.3134 16.6792 144.972 C.3 0 **** -0.106
31899 C25 38.2525 15.7766 144.119 C.ar 0 **** 0
31900 C26 39.0716 16.3292 143.166 C.ar 0 **** 0
31901 C27 39.1355 17.802 142.924 C.3 0 **** -0.106
31902 C28 39.8712 15.5169 142.365 C.ar 0 **** 0.042
31903 C29 39.8687 14.1377 142.483 C.ar 0 **** 0
31904 C30 39.0446 13.5988 143.458 C.ar 0 **** 0
31905 C31 38.2395 14.3926 144.271 C.ar 0 **** 0
31906 C32 38.9589 12.0811 143.688 C.ar 0 **** 0
31907 C33 39.855 11.2556 142.759 C.3 0 **** -0.106
31908 C34 40.0554 11.9155 141.396 C.3 0 **** -0.106
31909 C35 40.7392 13.264 141.611 C.3 0 **** -0.106
31910 C36 37.3754 13.6994 145.305 C.ar 0 **** -0.1268
31911 C37 37.3887 12.3444 145.409 C.ar 0 **** 0.0265
31912 C38 38.1442 11.5526 144.635 C.ar 0 **** -0.1268
31913 C39 34.3463 19.3688 148.778 C.3 0 **** -0.106
31914 C40 34.2435 17.9265 148.402 C.ar 0 **** 0
31915 C41 35.0749 17.5757 147.337 C.ar 0 **** 0
31916 C42 34.9791 16.2345 146.911 C.ar 0 **** -0.1268
31917 C43 34.1338 15.306 147.553 C.ar 0 **** 0
31918 C44 33.3229 15.6941 148.641 C.ar 0 **** 0
31919 C45 33.38 17.0338 149.057 C.ar 0 **** 0
31920 C46 32.5519 17.4505 150.122 C.ar 0 **** -0.1268
31921 C47 31.6869 16.5868 150.777 C.ar 0 **** 0
31922 C48 31.6439 15.2725 150.349 C.ar 0 **** -0.1268
31923 C49 32.4414 14.7988 149.294 C.ar 0 **** 0
31924 C50 32.391 13.465 148.852 C.ar 0 **** 0.042
31925 C51 33.1769 13.0519 147.794 C.ar 0 **** -0.1268
31926 C52 34.0255 13.9469 147.148 C.ar 0 **** -0.1268
31927 O53 37.8609 28.6818 146.977 O.3 0 **** -0.452
31928 C54 39.6086 28.0084 144.829 C.3 0 **** -0.159
31929 O55 35.1394 21.9615 148.518 O.3 0 **** -0.452
31930 C56 30.8474 17.179 151.903 C.3 0 **** -0.106
31931 C57 30.0595 16.1193 152.681 C.3 0 **** -0.159
31932 O58 36.6018 11.775 146.337 O.3 0 **** -0.4365
31933 O59 40.6996 16.0352 141.407 O.3 0 **** -0.452
31934 O60 31.6024 12.5149 149.391 O.3 0 **** -0.452
31935 H61 36.4707 26.6751 148.085 H 0 **** 0.1268
31936 H62 39.5042 25.4188 144.351 H 0 **** 0.1268
31937 H63 35.3495 24.1147 147.358 H 0 **** 0.053
31938 H64 36.6988 23.8339 148.522 H 0 **** 0.053
31939 H65 39.1908 23.8468 143.396 H 0 **** 0.053
31940 H66 40.4285 22.7757 144.098 H 0 **** 0.053
31941 H67 38.2777 22.0255 142.003 H 0 **** 0.053
31942 H68 40.0115 22.3353 141.662 H 0 **** 0.053
31943 H69 39.635 19.9269 141.943 H 0 **** 0.053
31944 H70 40.6723 20.5284 143.241 H 0 **** 0.053
31945 H71 37.4185 16.3645 146.032 H 0 **** 0.053
31946 H72 40.1893 18.0986 142.935 H 0 **** 0.053
31947 H73 40.84 11.1177 143.249 H 0 **** 0.053
31948 H74 39.4026 10.2593 142.661 H 0 **** 0.053
31949 H75 40.6722 11.2741 140.755 H 0 **** 0.053
31950 H76 39.0897 12.0468 140.887 H 0 **** 0.053
31951 H77 41.7123 13.1231 142.102 H 0 **** 0.053
31952 H78 40.9254 13.7496 140.659 H 0 **** 0.053
31953 H79 36.7748 14.3147 145.947 H 0 **** 0.1268
31954 H80 38.1384 10.4794 144.742 H 0 **** 0.1268
31955 H81 34.7254 19.4821 149.806 H 0 **** 0.053
31956 H82 33.3719 19.8722 148.672 H 0 **** 0.053
31957 H83 35.5046 15.8134 146.066 H 0 **** 0.1268
31958 H84 32.586 18.5037 150.457 H 0 **** 0.1268
31959 H85 30.9632 14.5933 150.856 H 0 **** 0.1268
31960 H86 33.1481 12.0137 147.424 H 0 **** 0.1268
31961 H87 34.6337 13.6094 146.262 H 0 **** 0.1268
31962 H88 37.2507 28.7562 147.698 H 0 **** 0.41
31963 H89 39.1007 28.979 144.786 H 0 **** 0.053
31964 H90 39.8311 27.7168 143.794 H 0 **** 0.053
31965 H91 40.5613 28.1494 145.364 H 0 **** 0.053
31966 H92 34.5386 21.5313 149.11 H 0 **** 0.41
31967 H93 31.498 17.7125 152.604 H 0 **** 0.053
31968 H94 29.469 16.5779 153.499 H 0 **** 0.053
31969 H95 30.729 15.3703 153.146 H 0 **** 0.053
31970 H96 29.3427 15.5832 152.032 H 0 **** 0.053
31971 H97 36.181 12.4284 146.872 H 0 **** 0.41
31972 H98 40.6396 16.9767 141.398 H 0 **** 0.41
31973 H99 31.0886 12.8926 150.093 H 0 **** 0.41
31974 H100 36.2908 16.5126 144.576 H 0 **** 0.053
31975 H101 38.7071 18.028 141.941 H 0 **** 0.053
31976 H102 30.144 17.9116 151.491 H 0 **** 0.053
31977 C1 45.687 32.1215 191.888 C.ar 0 **** 0.042
31978 C2 45.3854 31.3211 190.802 C.ar 0 **** -0.1268
31979 C3 45.0975 31.882 189.568 C.ar 0 **** 0
31980 C4 45.1029 33.2662 189.39 C.ar 0 **** 0
31981 C5 45.4223 34.0662 190.491 C.ar 0 **** -0.1268
31982 C6 45.6997 33.5147 191.733 C.ar 0 **** 0
31983 C7 44.7583 33.523 188 C.ar 0 **** 0
31984 C8 44.5705 32.2999 187.38 C.ar 0 **** 0
31985 C9 44.7605 31.1481 188.306 C.3 0 **** -0.106
31986 C10 44.2454 32.2466 186.029 C.ar 0 **** 0
31987 C11 44.1049 33.4304 185.275 C.ar 0 **** 0
31988 C12 44.3007 34.6574 185.966 C.ar 0 **** 0
31989 C13 44.6145 34.7118 187.329 C.ar 0 **** 0
31990 C14 44.8134 36.036 188.011 C.3 0 **** -0.106
31991 C15 43.9303 37.1132 187.381 C.3 0 **** -0.106
31992 C16 44.333 37.2464 185.938 C.3 0 **** -0.106
31993 C17 44.1452 35.9534 185.172 C.ar 0 **** 0
31994 C18 43.8704 35.9661 183.843 C.ar 0 **** 0
31995 C19 43.7092 34.7967 183.154 C.ar 0 **** 0
31996 C20 43.7813 33.3929 183.874 C.ar 0 **** 0
31997 C21 43.5407 32.0835 183.294 C.ar 0 **** 0
31998 C22 43.7343 30.9655 184.113 C.ar 0 **** 0
31999 C23 44.0638 31.0147 185.422 C.ar 0 **** 0.042
32000 C24 43.4413 34.8451 181.657 C.3 0 **** -0.106
32001 C25 43.6172 36.2274 180.963 C.ar 0 **** 0
32002 C26 43.7485 37.3705 181.713 C.ar 0 **** 0
32003 C27 43.7673 37.3493 183.206 C.3 0 **** -0.106
32004 C28 43.8524 38.6138 181.093 C.ar 0 **** 0.042
32005 C29 43.814 38.7534 179.716 C.ar 0 **** 0
32006 C30 43.6926 37.5875 178.976 C.ar 0 **** 0
32007 C31 43.5921 36.3347 179.576 C.ar 0 **** 0
32008 C32 43.6466 37.6128 177.44 C.ar 0 **** 0
32009 C33 43.7502 39.016 176.833 C.3 0 **** -0.106
32010 C34 43.151 40.0923 177.736 C.3 0 **** -0.106
32011 C35 43.9269 40.1044 179.051 C.3 0 **** -0.106
32012 C36 43.4633 35.1253 178.672 C.ar 0 **** -0.1268
32013 C37 43.4329 35.2813 177.322 C.ar 0 **** 0.0265
32014 C38 43.5181 36.4735 176.715 C.ar 0 **** -0.1268
32015 C39 43.5305 29.6345 183.49 C.3 0 **** -0.106
32016 C40 43.1159 30.1129 182.137 C.ar 0 **** 0
32017 C41 43.1221 31.504 182.018 C.ar 0 **** 0
32018 C42 42.6909 32.0077 180.773 C.ar 0 **** -0.1268
32019 C43 42.3272 31.1564 179.71 C.ar 0 **** 0
32020 C44 42.3606 29.7541 179.86 C.ar 0 **** 0
32021 C45 42.7478 29.2348 181.106 C.ar 0 **** 0
32022 C46 42.7489 27.8347 181.291 C.ar 0 **** -0.1268
32023 C47 42.3939 26.9502 180.285 C.ar 0 **** 0
32024 C48 42.0352 27.4817 179.061 C.ar 0 **** -0.1268
32025 C49 41.9933 28.8663 178.82 C.ar 0 **** 0
32026 C50 41.5757 29.4095 177.591 C.ar 0 **** 0.042
32027 C51 41.534 30.7774 177.411 C.ar 0 **** -0.1268
32028 C52 41.8964 31.639 178.443 C.ar 0 **** -0.1268
32029 O53 45.9754 31.5709 193.113 O.3 0 **** -0.452
32030 C54 46.0465 34.4109 192.912 C.3 0 **** -0.159
32031 O55 44.2072 29.8727 186.117 O.3 0 **** -0.452
32032 C56 42.4248 25.4652 180.628 C.3 0 **** -0.106
32033 C57 42.1738 24.5648 179.413 C.3 0 **** -0.159
32034 O58 43.3104 34.1806 176.562 O.3 0 **** -0.4365
32035 O59 43.9915 39.7711 181.809 O.3 0 **** -0.452
32036 O60 41.1885 28.6762 176.528 O.3 0 **** -0.452
32037 H61 45.3679 30.2103 190.884 H 0 **** 0.1268
32038 H62 45.4839 35.1622 190.449 H 0 **** 0.1268
32039 H63 43.8469 30.5434 188.451 H 0 **** 0.053
32040 H64 45.598 30.4851 188.021 H 0 **** 0.053
32041 H65 44.5473 35.9896 189.063 H 0 **** 0.053
32042 H66 45.8748 36.3603 187.935 H 0 **** 0.053
32043 H67 42.851 36.8439 187.487 H 0 **** 0.053
32044 H68 44.0596 38.0952 187.925 H 0 **** 0.053
32045 H69 43.7442 38.0576 185.492 H 0 **** 0.053
32046 H70 45.3914 37.5582 185.892 H 0 **** 0.053
32047 H71 44.132 34.1315 181.161 H 0 **** 0.053
32048 H72 44.64 37.9201 183.539 H 0 **** 0.053
32049 H73 44.8198 39.2443 176.649 H 0 **** 0.053
32050 H74 43.256 38.9918 175.852 H 0 **** 0.053
32051 H75 43.2172 41.0715 177.246 H 0 **** 0.053
32052 H76 42.0848 39.8927 177.915 H 0 **** 0.053
32053 H77 44.9864 40.3251 178.863 H 0 **** 0.053
32054 H78 43.5474 40.8798 179.707 H 0 **** 0.053
32055 H79 43.4122 34.1587 179.135 H 0 **** 0.1268
32056 H80 43.4985 36.5679 175.641 H 0 **** 0.1268
32057 H81 44.4536 29.0364 183.431 H 0 **** 0.053
32058 H82 42.7251 29.05 183.963 H 0 **** 0.053
32059 H83 42.5786 33.0545 180.533 H 0 **** 0.1268
32060 H84 43.0504 27.4141 182.267 H 0 **** 0.1268
32061 H85 41.7417 26.79 178.275 H 0 **** 0.1268
32062 H86 41.2112 31.2242 176.457 H 0 **** 0.1268
32063 H87 41.8311 32.7539 178.295 H 0 **** 0.1268
32064 H88 45.915 30.6283 193.039 H 0 **** 0.41
32065 H89 45.6869 33.9773 193.852 H 0 **** 0.053
32066 H90 45.587 35.4051 192.821 H 0 **** 0.053
32067 H91 47.1379 34.5373 192.994 H 0 **** 0.053
32068 H92 44.0435 29.1239 185.561 H 0 **** 0.41
32069 H93 43.4003 25.2105 181.054 H 0 **** 0.053
32070 H94 42.2209 23.4933 179.692 H 0 **** 0.053
32071 H95 42.93 24.7263 178.621 H 0 **** 0.053
32072 H96 41.1732 24.7372 178.975 H 0 **** 0.053
32073 H97 43.3496 33.3972 177.087 H 0 **** 0.41
32074 H98 43.9961 39.5842 182.734 H 0 **** 0.41
32075 H99 41.2484 27.7555 176.745 H 0 **** 0.41
32076 H100 42.3748 34.5722 181.522 H 0 **** 0.053
32077 H101 42.857 37.8258 183.588 H 0 **** 0.053
32078 H102 41.6692 25.2465 181.391 H 0 **** 0.053
32079 C1 61.9371 36.8898 118.9 C.ar 0 **** 0.042
32080 C2 62.4301 36.081 117.893 C.ar 0 **** -0.1268
32081 C3 63.7275 35.5986 117.945 C.ar 0 **** 0
32082 C4 64.5696 35.9159 119.011 C.ar 0 **** 0
32083 C5 64.0568 36.723 120.031 C.ar 0 **** -0.1268
32084 C6 62.7634 37.2212 119.982 C.ar 0 **** 0
32085 C7 65.8463 35.2645 118.761 C.ar 0 **** 0
32086 C8 65.7369 34.5677 117.571 C.ar 0 **** 0
32087 C9 64.3956 34.7126 116.938 C.3 0 **** -0.106
32088 C10 66.8158 33.8315 117.093 C.ar 0 **** 0
32089 C11 68.0285 33.7827 117.812 C.ar 0 **** 0
32090 C12 68.0857 34.5248 119.024 C.ar 0 **** 0
32091 C13 67.0049 35.2768 119.497 C.ar 0 **** 0
32092 C14 67.1169 36.0418 120.786 C.3 0 **** -0.106
32093 C15 68.5493 36.5273 121.01 C.3 0 **** -0.106
32094 C16 69.4352 35.3138 121.088 C.3 0 **** -0.106
32095 C17 69.392 34.4947 119.815 C.ar 0 **** 0
32096 C18 70.4658 33.7618 119.423 C.ar 0 **** 0
32097 C19 70.4198 33.0177 118.278 C.ar 0 **** 0
32098 C20 69.1499 33.016 117.339 C.ar 0 **** 0
32099 C21 68.9935 32.3527 116.057 C.ar 0 **** 0
32100 C22 67.7437 32.4318 115.433 C.ar 0 **** 0
32101 C23 66.6902 33.1368 115.901 C.ar 0 **** 0.042
32102 C24 71.6258 32.1758 117.888 C.3 0 **** -0.106
32103 C25 72.7452 32.0266 118.959 C.ar 0 **** 0
32104 C26 72.7493 32.8237 120.077 C.ar 0 **** 0
32105 C27 71.6811 33.8334 120.343 C.3 0 **** -0.106
32106 C28 73.7797 32.7271 121.01 C.ar 0 **** 0.042
32107 C29 74.8369 31.8484 120.848 C.ar 0 **** 0
32108 C30 74.8096 31.0439 119.72 C.ar 0 **** 0
32109 C31 73.787 31.121 118.778 C.ar 0 **** 0
32110 C32 75.9231 30.0231 119.434 C.ar 0 **** 0
32111 C33 77.0269 29.9879 120.496 C.3 0 **** -0.106
32112 C34 77.245 31.3444 121.163 C.3 0 **** -0.106
32113 C35 75.9502 31.7498 121.864 C.3 0 **** -0.106
32114 C36 73.8559 30.195 117.581 C.ar 0 **** -0.1268
32115 C37 74.8993 29.3355 117.441 C.ar 0 **** 0.0265
32116 C38 75.9024 29.243 118.325 C.ar 0 **** -0.1268
32117 C39 67.5882 31.7079 114.148 C.3 0 **** -0.106
32118 C40 68.9886 31.1989 114.038 C.ar 0 **** 0
32119 C41 69.7917 31.5605 115.122 C.ar 0 **** 0
32120 C42 71.1373 31.1447 115.043 C.ar 0 **** -0.1268
32121 C43 71.6183 30.3749 113.964 C.ar 0 **** 0
32122 C44 70.7704 30.013 112.895 C.ar 0 **** 0
32123 C45 69.436 30.447 112.94 C.ar 0 **** 0
32124 C46 68.5792 30.1226 111.866 C.ar 0 **** -0.1268
32125 C47 69.0031 29.3875 110.769 C.ar 0 **** 0
32126 C48 70.3218 28.9725 110.743 C.ar 0 **** -0.1268
32127 C49 71.2227 29.2662 111.781 C.ar 0 **** 0
32128 C50 72.5669 28.8545 111.75 C.ar 0 **** 0.042
32129 C51 73.4202 29.185 112.784 C.ar 0 **** -0.1268
32130 C52 72.9666 29.9335 113.867 C.ar 0 **** -0.1268
32131 O53 60.65 37.3697 118.853 O.3 0 **** -0.452
32132 C54 62.2325 38.0945 121.109 C.3 0 **** -0.159
32133 O55 65.5401 33.1581 115.206 O.3 0 **** -0.452
32134 C56 67.9697 29.1201 109.681 C.3 0 **** -0.106
32135 C57 68.4743 28.1556 108.601 C.3 0 **** -0.159
32136 O58 74.922 28.5422 116.357 O.3 0 **** -0.4365
32137 O59 73.8104 33.5007 122.138 O.3 0 **** -0.452
32138 O60 73.1197 28.1391 110.751 O.3 0 **** -0.452
32139 H61 61.803 35.791 117.018 H 0 **** 0.1268
32140 H62 64.6254 37.0045 120.928 H 0 **** 0.1268
32141 H63 64.4241 35.212 115.952 H 0 **** 0.053
32142 H64 63.8428 33.7591 116.85 H 0 **** 0.053
32143 H65 66.484 36.9245 120.786 H 0 **** 0.053
32144 H66 66.8216 35.4033 121.648 H 0 **** 0.053
32145 H67 68.8612 37.216 120.187 H 0 **** 0.053
32146 H68 68.6147 37.1325 121.962 H 0 **** 0.053
32147 H69 70.4563 35.6496 121.306 H 0 **** 0.053
32148 H70 69.1131 34.6942 121.943 H 0 **** 0.053
32149 H71 71.2665 31.1558 117.636 H 0 **** 0.053
32150 H72 71.3185 33.6778 121.364 H 0 **** 0.053
32151 H73 76.7534 29.2388 121.267 H 0 **** 0.053
32152 H74 77.9438 29.6254 120.011 H 0 **** 0.053
32153 H75 78.0654 31.2775 121.888 H 0 **** 0.053
32154 H76 77.5351 32.097 120.416 H 0 **** 0.053
32155 H77 75.6804 31.0021 122.622 H 0 **** 0.053
32156 H78 76.0777 32.6969 122.376 H 0 **** 0.053
32157 H79 73.053 30.2364 116.87 H 0 **** 0.1268
32158 H80 76.7147 28.5453 118.194 H 0 **** 0.1268
32159 H81 66.8693 30.875 114.202 H 0 **** 0.053
32160 H82 67.3446 32.3695 113.301 H 0 **** 0.053
32161 H83 71.9049 31.3862 115.764 H 0 **** 0.1268
32162 H84 67.5263 30.4589 111.888 H 0 **** 0.1268
32163 H85 70.659 28.4 109.883 H 0 **** 0.1268
32164 H86 74.4785 28.8767 112.779 H 0 **** 0.1268
32165 H87 73.6801 30.2304 114.687 H 0 **** 0.1268
32166 H88 60.2433 37.0454 118.061 H 0 **** 0.41
32167 H89 61.5222 38.8371 120.727 H 0 **** 0.053
32168 H90 63.0363 38.6495 121.612 H 0 **** 0.053
32169 H91 61.7089 37.4816 121.86 H 0 **** 0.053
32170 H92 65.6174 32.634 114.421 H 0 **** 0.41
32171 H93 67.0651 28.6965 110.129 H 0 **** 0.053
32172 H94 67.6987 27.973 107.832 H 0 **** 0.053
32173 H95 68.7461 27.1706 109.027 H 0 **** 0.053
32174 H96 69.359 28.5582 108.074 H 0 **** 0.053
32175 H97 74.1203 28.6148 115.864 H 0 **** 0.41
32176 H98 73.0626 34.0754 122.162 H 0 **** 0.41
32177 H99 72.4629 27.9609 110.09 H 0 **** 0.41
32178 H100 72.0991 32.6876 117.025 H 0 **** 0.053
32179 H101 72.1046 34.841 120.26 H 0 **** 0.053
32180 H102 67.6846 30.0652 109.204 H 0 **** 0.053
32181 C1 60.9258 31.1812 148.412 C.ar 0 **** 0.042
32182 C2 60.0224 31.186 149.459 C.ar 0 **** -0.1268
32183 C3 58.7441 30.6796 149.292 C.ar 0 **** 0
32184 C4 58.3346 30.1535 148.066 C.ar 0 **** 0
32185 C5 59.26 30.141 147.018 C.ar 0 **** -0.1268
32186 C6 60.538 30.6572 147.171 C.ar 0 **** 0
32187 C7 56.9553 29.7179 148.222 C.ar 0 **** 0
32188 C8 56.5785 29.9768 149.529 C.ar 0 **** 0
32189 C9 57.6643 30.6111 150.328 C.3 0 **** -0.106
32190 C10 55.3011 29.6415 149.964 C.ar 0 **** 0
32191 C11 54.3776 29.0348 149.087 C.ar 0 **** 0
32192 C12 54.8172 28.8008 147.755 C.ar 0 **** 0
32193 C13 56.0979 29.1504 147.313 C.ar 0 **** 0
32194 C14 56.5135 28.8787 145.895 C.3 0 **** -0.106
32195 C15 55.3181 28.9787 144.947 C.3 0 **** -0.106
32196 C16 54.3154 27.9383 145.366 C.3 0 **** -0.106
32197 C17 53.8316 28.1525 146.785 C.ar 0 **** 0
32198 C18 52.5859 27.7643 147.161 C.ar 0 **** 0
32199 C19 52.156 27.9525 148.444 C.ar 0 **** 0
32200 C20 53.0568 28.67 149.525 C.ar 0 **** 0
32201 C21 52.7011 29.0181 150.889 C.ar 0 **** 0
32202 C22 53.6934 29.5892 151.693 C.ar 0 **** 0
32203 C23 54.9396 29.9037 151.276 C.ar 0 **** 0.042
32204 C24 50.7689 27.4702 148.843 C.3 0 **** -0.106
32205 C25 50.0251 26.566 147.817 C.ar 0 **** 0
32206 C26 50.4945 26.4389 146.533 C.ar 0 **** 0
32207 C27 51.7411 27.1175 146.067 C.3 0 **** -0.106
32208 C28 49.8001 25.6723 145.599 C.ar 0 **** 0.042
32209 C29 48.6167 25.0265 145.913 C.ar 0 **** 0
32210 C30 48.1646 25.1567 147.218 C.ar 0 **** 0
32211 C31 48.8458 25.9138 148.167 C.ar 0 **** 0
32212 C32 46.8674 24.4797 147.689 C.ar 0 **** 0
32213 C33 46.1534 23.6691 146.602 C.3 0 **** -0.106
32214 C34 46.374 24.2397 145.203 C.3 0 **** -0.106
32215 C35 47.8693 24.198 144.896 C.3 0 **** -0.106
32216 C36 48.2624 25.9886 149.564 C.ar 0 **** -0.1268
32217 C37 47.1023 25.3434 149.856 C.ar 0 **** 0.0265
32218 C38 46.4193 24.6151 148.961 C.ar 0 **** -0.1268
32219 C39 53.3261 29.8935 153.098 C.3 0 **** -0.106
32220 C40 51.8974 29.4625 153.025 C.ar 0 **** 0
32221 C41 51.5369 28.9617 151.773 C.ar 0 **** 0
32222 C42 50.1842 28.5857 151.638 C.ar 0 **** -0.1268
32223 C43 49.2755 28.6687 152.714 C.ar 0 **** 0
32224 C44 49.6829 29.1621 153.971 C.ar 0 **** 0
32225 C45 51.0179 29.5727 154.114 C.ar 0 **** 0
32226 C46 51.4376 30.1001 155.355 C.ar 0 **** -0.1268
32227 C47 50.5835 30.2244 156.44 C.ar 0 **** 0
32228 C48 49.2722 29.8173 156.277 C.ar 0 **** -0.1268
32229 C49 48.7946 29.2869 155.067 C.ar 0 **** 0
32230 C50 47.4585 28.8824 154.897 C.ar 0 **** 0.042
32231 C51 47.0301 28.388 153.68 C.ar 0 **** -0.1268
32232 C52 47.9093 28.2881 152.605 C.ar 0 **** -0.1268
32233 O53 62.1962 31.6803 148.574 O.3 0 **** -0.452
32234 C54 61.5238 30.6272 146.013 C.3 0 **** -0.159
32235 O55 55.8077 30.4674 152.133 O.3 0 **** -0.452
32236 C56 51.1737 30.8187 157.714 C.3 0 **** -0.106
32237 C57 50.2123 30.7515 158.906 C.3 0 **** -0.159
32238 O58 46.62 25.4454 151.105 O.3 0 **** -0.4365
32239 O59 50.2444 25.5187 144.314 O.3 0 **** -0.452
32240 O60 46.5173 28.9449 155.859 O.3 0 **** -0.452
32241 H61 60.2937 31.5898 150.461 H 0 **** 0.1268
32242 H62 59.0482 29.7225 146.024 H 0 **** 0.1268
32243 H63 57.4144 31.627 150.684 H 0 **** 0.053
32244 H64 58.0012 29.9959 151.183 H 0 **** 0.053
32245 H65 57.249 29.5984 145.547 H 0 **** 0.053
32246 H66 56.9529 27.861 145.803 H 0 **** 0.053
32247 H67 54.8834 30.0077 144.975 H 0 **** 0.053
32248 H68 55.6477 28.8102 143.879 H 0 **** 0.053
32249 H69 53.4794 27.964 144.656 H 0 **** 0.053
32250 H70 54.7804 26.9409 145.276 H 0 **** 0.053
32251 H71 50.863 26.8957 149.788 H 0 **** 0.053
32252 H72 52.3705 26.3661 145.579 H 0 **** 0.053
32253 H73 46.526 22.6251 146.637 H 0 **** 0.053
32254 H74 45.0859 23.6354 146.861 H 0 **** 0.053
32255 H75 45.8171 23.6486 144.466 H 0 **** 0.053
32256 H76 45.9937 25.2696 145.145 H 0 **** 0.053
32257 H77 48.2352 23.1631 144.937 H 0 **** 0.053
32258 H78 48.0608 24.5686 143.895 H 0 **** 0.053
32259 H79 48.8025 26.551 150.301 H 0 **** 0.1268
32260 H80 45.5042 24.1068 149.22 H 0 **** 0.1268
32261 H81 53.8823 29.2909 153.833 H 0 **** 0.053
32262 H82 53.4001 30.9645 153.346 H 0 **** 0.053
32263 H83 49.7254 28.2358 150.725 H 0 **** 0.1268
32264 H84 52.4857 30.4286 155.48 H 0 **** 0.1268
32265 H85 48.598 29.9181 157.124 H 0 **** 0.1268
32266 H86 45.9861 28.0711 153.522 H 0 **** 0.1268
32267 H87 47.54 27.9197 151.607 H 0 **** 0.1268
32268 H88 62.2786 31.9901 149.466 H 0 **** 0.41
32269 H89 62.1918 31.4959 146.046 H 0 **** 0.053
32270 H90 61.0148 30.651 145.04 H 0 **** 0.053
32271 H91 62.1471 29.7199 146.059 H 0 **** 0.053
32272 H92 55.4051 30.5831 152.983 H 0 **** 0.41
32273 H93 52.0916 30.2832 157.978 H 0 **** 0.053
32274 H94 50.6725 31.1804 159.818 H 0 **** 0.053
32275 H95 49.9292 29.7086 159.145 H 0 **** 0.053
32276 H96 49.2854 31.3245 158.717 H 0 **** 0.053
32277 H97 47.2257 25.9007 151.668 H 0 **** 0.41
32278 H98 51.0442 26.0028 144.186 H 0 **** 0.41
32279 H99 46.899 29.3038 156.65 H 0 **** 0.41
32280 H100 50.1428 28.3787 148.955 H 0 **** 0.053
32281 H101 51.4811 27.8968 145.341 H 0 **** 0.053
32282 H102 51.4468 31.8656 157.539 H 0 **** 0.053
32283 C1 46.2375 27.9497 101.201 C.ar 0 **** 0.042
32284 C2 45.5366 26.7673 101.349 C.ar 0 **** -0.1268
32285 C3 44.1646 26.7776 101.539 C.ar 0 **** 0
32286 C4 43.4553 27.9785 101.589 C.ar 0 **** 0
32287 C5 44.172 29.1682 101.428 C.ar 0 **** -0.1268
32288 C6 45.5473 29.1689 101.25 C.ar 0 **** 0
32289 C7 42.0552 27.6438 101.802 C.ar 0 **** 0
32290 C8 41.9565 26.2646 101.859 C.ar 0 **** 0
32291 C9 43.2734 25.5843 101.704 C.3 0 **** -0.106
32292 C10 40.7162 25.6622 102.039 C.ar 0 **** 0
32293 C11 39.548 26.443 102.164 C.ar 0 **** 0
32294 C12 39.7111 27.8543 102.107 C.ar 0 **** 0
32295 C13 40.9609 28.461 101.939 C.ar 0 **** 0
32296 C14 41.078 29.9582 101.883 C.3 0 **** -0.106
32297 C15 40.0101 30.6224 102.752 C.3 0 **** -0.106
32298 C16 38.6652 30.2211 102.21 C.3 0 **** -0.106
32299 C17 38.4612 28.7214 102.248 C.ar 0 **** 0
32300 C18 37.218 28.1925 102.384 C.ar 0 **** 0
32301 C19 37.0373 26.8383 102.41 C.ar 0 **** 0
32302 C20 38.2556 25.8358 102.338 C.ar 0 **** 0
32303 C21 38.2234 24.3878 102.446 C.ar 0 **** 0
32304 C22 39.4285 23.6973 102.278 C.ar 0 **** 0
32305 C23 40.6329 24.2803 102.089 C.ar 0 **** 0.042
32306 C24 35.6273 26.2778 102.523 C.3 0 **** -0.106
32307 C25 34.4597 27.2928 102.352 C.ar 0 **** 0
32308 C26 34.7043 28.6437 102.364 C.ar 0 **** 0
32309 C27 36.082 29.2054 102.493 C.3 0 **** -0.106
32310 C28 33.6528 29.5527 102.274 C.ar 0 **** 0.042
32311 C29 32.335 29.1435 102.167 C.ar 0 **** 0
32312 C30 32.1085 27.7761 102.144 C.ar 0 **** 0
32313 C31 33.1444 26.8506 102.238 C.ar 0 **** 0
32314 C32 30.6881 27.1993 102.031 C.ar 0 **** 0
32315 C33 29.5871 28.2606 101.941 C.3 0 **** -0.106
32316 C34 29.9447 29.5439 102.688 C.3 0 **** -0.106
32317 C35 31.2022 30.135 102.055 C.3 0 **** -0.106
32318 C36 32.7843 25.379 102.207 C.ar 0 **** -0.1268
32319 C37 31.4842 24.9957 102.107 C.ar 0 **** 0.0265
32320 C38 30.4645 25.8616 102.023 C.ar 0 **** -0.1268
32321 C39 39.3681 22.2163 102.344 C.3 0 **** -0.106
32322 C40 37.9092 22.0921 102.641 C.ar 0 **** 0
32323 C41 37.2527 23.3231 102.698 C.ar 0 **** 0
32324 C42 35.8817 23.2634 103.024 C.ar 0 **** -0.1268
32325 C43 35.2166 22.0368 103.23 C.ar 0 **** 0
32326 C44 35.9106 20.8111 103.144 C.ar 0 **** 0
32327 C45 37.2836 20.8533 102.854 C.ar 0 **** 0
32328 C46 38.0036 19.64 102.796 C.ar 0 **** -0.1268
32329 C47 37.4066 18.4071 103.011 C.ar 0 **** 0
32330 C48 36.0543 18.3881 103.298 C.ar 0 **** -0.1268
32331 C49 35.285 19.5613 103.372 C.ar 0 **** 0
32332 C50 33.912 19.5443 103.675 C.ar 0 **** 0.042
32333 C51 33.2026 20.7261 103.759 C.ar 0 **** -0.1268
32334 C52 33.8339 21.9495 103.551 C.ar 0 **** -0.1268
32335 O53 47.5974 27.9441 101.003 O.3 0 **** -0.452
32336 C54 46.2991 30.4795 101.076 C.3 0 **** -0.159
32337 O55 41.7303 23.5149 101.957 O.3 0 **** -0.452
32338 C56 38.3104 17.1819 102.924 C.3 0 **** -0.106
32339 C57 37.5352 15.8617 102.996 C.3 0 **** -0.159
32340 O58 31.2131 23.6803 102.093 O.3 0 **** -0.4365
32341 O59 33.8615 30.9047 102.284 O.3 0 **** -0.452
32342 O60 33.1991 18.4251 103.908 O.3 0 **** -0.452
32343 H61 46.0485 25.7782 101.315 H 0 **** 0.1268
32344 H62 43.7059 30.1632 101.423 H 0 **** 0.1268
32345 H63 43.577 25.0032 102.593 H 0 **** 0.053
32346 H64 43.3358 24.941 100.807 H 0 **** 0.053
32347 H65 42.0401 30.3001 102.253 H 0 **** 0.053
32348 H66 40.9593 30.3221 100.838 H 0 **** 0.053
32349 H67 40.1334 30.3194 103.821 H 0 **** 0.053
32350 H68 40.1307 31.746 102.733 H 0 **** 0.053
32351 H69 37.8939 30.7397 102.793 H 0 **** 0.053
32352 H70 38.579 30.585 101.171 H 0 **** 0.053
32353 H71 35.5053 25.4928 101.747 H 0 **** 0.053
32354 H72 36.225 29.9356 101.69 H 0 **** 0.053
32355 H73 29.4073 28.4951 100.872 H 0 **** 0.053
32356 H74 28.6616 27.8132 102.329 H 0 **** 0.053
32357 H75 29.1143 30.258 102.624 H 0 **** 0.053
32358 H76 30.1086 29.3342 103.755 H 0 **** 0.053
32359 H77 31.023 30.359 100.994 H 0 **** 0.053
32360 H78 31.4682 31.0672 102.54 H 0 **** 0.053
32361 H79 33.5858 24.6669 102.254 H 0 **** 0.1268
32362 H80 29.4417 25.5294 101.937 H 0 **** 0.1268
32363 H81 39.6181 21.7278 101.389 H 0 **** 0.053
32364 H82 39.9719 21.7907 103.161 H 0 **** 0.053
32365 H83 35.2398 24.1204 103.167 H 0 **** 0.1268
32366 H84 39.0855 19.6592 102.57 H 0 **** 0.1268
32367 H85 35.5832 17.424 103.472 H 0 **** 0.1268
32368 H86 32.1271 20.7369 104.001 H 0 **** 0.1268
32369 H87 33.2538 22.9091 103.66 H 0 **** 0.1268
32370 H88 47.8968 27.0455 101.027 H 0 **** 0.41
32371 H89 47.3049 30.4146 101.508 H 0 **** 0.053
32372 H90 45.7901 31.3148 101.577 H 0 **** 0.053
32373 H91 46.4056 30.7286 100.008 H 0 **** 0.053
32374 H92 41.5028 22.5978 102.023 H 0 **** 0.41
32375 H93 38.8703 17.2049 101.984 H 0 **** 0.053
32376 H94 38.2163 14.9911 102.92 H 0 **** 0.053
32377 H95 36.8013 15.772 102.172 H 0 **** 0.053
32378 H96 36.991 15.7583 103.954 H 0 **** 0.053
32379 H97 32.0053 23.1682 102.061 H 0 **** 0.41
32380 H98 34.7837 31.0941 102.341 H 0 **** 0.41
32381 H99 33.7666 17.668 103.839 H 0 **** 0.41
32382 H100 35.532 25.8783 103.554 H 0 **** 0.053
32383 H101 36.1791 29.7115 103.459 H 0 **** 0.053
32384 H102 39.0423 17.2069 103.74 H 0 **** 0.053
32385 C1 24.8631 17.7602 148.924 C.ar 0 **** 0.042
32386 C2 25.2492 18.2036 150.176 C.ar 0 **** -0.1268
32387 C3 24.5175 19.1754 150.838 C.ar 0 **** 0
32388 C4 23.3753 19.7325 150.261 C.ar 0 **** 0
32389 C5 22.9863 19.268 149.001 C.ar 0 **** -0.1268
32390 C6 23.7191 18.3044 148.325 C.ar 0 **** 0
32391 C7 22.8519 20.7126 151.2 C.ar 0 **** 0
32392 C8 23.6751 20.7102 152.313 C.ar 0 **** 0
32393 C9 24.8058 19.7469 152.193 C.3 0 **** -0.106
32394 C10 23.3968 21.5488 153.387 C.ar 0 **** 0
32395 C11 22.2775 22.407 153.358 C.ar 0 **** 0
32396 C12 21.4729 22.3729 152.187 C.ar 0 **** 0
32397 C13 21.7604 21.5389 151.1 C.ar 0 **** 0
32398 C14 20.8755 21.5397 149.886 C.3 0 **** -0.106
32399 C15 20.2674 22.9231 149.654 C.3 0 **** -0.106
32400 C16 19.435 23.2633 150.86 C.3 0 **** -0.106
32401 C17 20.2599 23.2999 152.129 C.ar 0 **** 0
32402 C18 19.9119 24.1106 153.162 C.ar 0 **** 0
32403 C19 20.6549 24.1349 154.308 C.ar 0 **** 0
32404 C20 21.9679 23.2715 154.466 C.ar 0 **** 0
32405 C21 22.8996 23.2654 155.58 C.ar 0 **** 0
32406 C22 23.9633 22.3579 155.532 C.ar 0 **** 0
32407 C23 24.2281 21.5326 154.495 C.ar 0 **** 0.042
32408 C24 20.215 25.0252 155.461 C.3 0 **** -0.106
32409 C25 18.8002 25.6643 155.346 C.ar 0 **** 0
32410 C26 18.1151 25.629 154.157 C.ar 0 **** 0
32411 C27 18.6611 24.9564 152.94 C.3 0 **** -0.106
32412 C28 16.872 26.2469 154.039 C.ar 0 **** 0.042
32413 C29 16.2865 26.9266 155.093 C.ar 0 **** 0
32414 C30 16.9875 26.9416 156.289 C.ar 0 **** 0
32415 C31 18.2286 26.3262 156.43 C.ar 0 **** 0
32416 C32 16.4369 27.6569 157.533 C.ar 0 **** 0
32417 C33 15.0749 28.3251 157.32 C.3 0 **** -0.106
32418 C34 14.8745 28.806 155.884 C.3 0 **** -0.106
32419 C35 14.9392 27.5944 154.957 C.3 0 **** -0.106
32420 C36 18.9081 26.4035 157.782 C.ar 0 **** -0.1268
32421 C37 18.3153 27.0702 158.807 C.ar 0 **** 0.0265
32422 C38 17.1265 27.6803 158.701 C.ar 0 **** -0.1268
32423 C39 24.8769 22.332 156.7 C.3 0 **** -0.106
32424 C40 24.2313 23.4317 157.479 C.ar 0 **** 0
32425 C41 23.1053 23.9644 156.848 C.ar 0 **** 0
32426 C42 22.487 25.0393 157.52 C.ar 0 **** -0.1268
32427 C43 22.9526 25.5068 158.767 C.ar 0 **** 0
32428 C44 24.083 24.9289 159.383 C.ar 0 **** 0
32429 C45 24.7316 23.8798 158.712 C.ar 0 **** 0
32430 C46 25.884 23.3095 159.295 C.ar 0 **** -0.1268
32431 C47 26.3978 23.7419 160.508 C.ar 0 **** 0
32432 C48 25.7465 24.7786 161.151 C.ar 0 **** -0.1268
32433 C49 24.5973 25.3879 160.62 C.ar 0 **** 0
32434 C50 23.9393 26.4487 161.267 C.ar 0 **** 0.042
32435 C51 22.8262 27.0313 160.694 C.ar 0 **** -0.1268
32436 C52 22.342 26.583 159.468 C.ar 0 **** -0.1268
32437 O53 25.5836 16.7932 148.265 O.3 0 **** -0.452
32438 C54 23.2693 17.817 146.956 C.3 0 **** -0.159
32439 O55 25.2923 20.7126 154.55 O.3 0 **** -0.452
32440 C56 27.6529 23.0385 161.012 C.3 0 **** -0.106
32441 C57 28.044 23.4573 162.434 C.3 0 **** -0.159
32442 O58 18.9589 27.1176 159.985 O.3 0 **** -0.4365
32443 O59 16.1597 26.2238 152.871 O.3 0 **** -0.452
32444 O60 24.3222 26.9724 162.448 O.3 0 **** -0.452
32445 H61 26.1498 17.7934 150.687 H 0 **** 0.1268
32446 H62 22.0881 19.6184 148.474 H 0 **** 0.1268
32447 H63 25.7994 20.2304 152.197 H 0 **** 0.053
32448 H64 24.7848 18.9441 152.953 H 0 **** 0.053
32449 H65 21.4287 21.2869 148.986 H 0 **** 0.053
32450 H66 20.0483 20.8053 150.003 H 0 **** 0.053
32451 H67 21.072 23.6786 149.48 H 0 **** 0.053
32452 H68 19.6345 22.9226 148.718 H 0 **** 0.053
32453 H69 18.9484 24.2294 150.678 H 0 **** 0.053
32454 H70 18.6299 22.5139 150.958 H 0 **** 0.053
32455 H71 20.2334 24.4185 156.391 H 0 **** 0.053
32456 H72 17.8875 24.2869 152.55 H 0 **** 0.053
32457 H73 14.279 27.5972 157.578 H 0 **** 0.053
32458 H74 14.9949 29.1533 158.037 H 0 **** 0.053
32459 H75 13.903 29.3067 155.789 H 0 **** 0.053
32460 H76 15.6449 29.5429 155.616 H 0 **** 0.053
32461 H77 14.1529 26.8741 155.221 H 0 **** 0.053
32462 H78 14.77 27.895 153.929 H 0 **** 0.053
32463 H79 19.8524 25.9066 157.896 H 0 **** 0.1268
32464 H80 16.6756 28.1966 159.534 H 0 **** 0.1268
32465 H81 24.8433 21.3828 157.258 H 0 **** 0.053
32466 H82 25.9175 22.5907 156.446 H 0 **** 0.053
32467 H83 21.6452 25.6035 157.146 H 0 **** 0.1268
32468 H84 26.4054 22.4841 158.777 H 0 **** 0.1268
32469 H85 26.1503 25.1249 162.099 H 0 **** 0.1268
32470 H86 22.2991 27.8689 161.18 H 0 **** 0.1268
32471 H87 21.4563 27.0905 158.992 H 0 **** 0.1268
32472 H88 26.3195 16.5513 148.81 H 0 **** 0.41
32473 H89 24.1312 17.5549 146.331 H 0 **** 0.053
32474 H90 22.702 18.5852 146.412 H 0 **** 0.053
32475 H91 22.637 16.9199 147.053 H 0 **** 0.053
32476 H92 25.7543 20.8287 155.369 H 0 **** 0.41
32477 H93 27.4976 21.955 160.999 H 0 **** 0.053
32478 H94 28.9524 22.9224 162.775 H 0 **** 0.053
32479 H95 27.2418 23.2318 163.162 H 0 **** 0.053
32480 H96 28.2695 24.5385 162.495 H 0 **** 0.053
32481 H97 19.7367 26.583 159.971 H 0 **** 0.41
32482 H98 16.6386 25.7546 152.207 H 0 **** 0.41
32483 H99 25.1006 26.5245 162.754 H 0 **** 0.41
32484 H100 20.9289 25.8736 155.491 H 0 **** 0.053
32485 H101 18.8991 25.7125 152.183 H 0 **** 0.053
32486 H102 28.4881 23.2556 160.338 H 0 **** 0.053
32487 C1 53.8051 -3.49261 122.345 C.ar 0 **** 0.042
32488 C2 53.8231 -3.52621 123.727 C.ar 0 **** -0.1268
32489 C3 53.9417 -2.3577 124.461 C.ar 0 **** 0
32490 C4 54.047 -1.11882 123.828 C.ar 0 **** 0
32491 C5 54.0141 -1.09446 122.43 C.ar 0 **** -0.1268
32492 C6 53.9084 -2.25993 121.686 C.ar 0 **** 0
32493 C7 54.161 -0.109873 124.87 C.ar 0 **** 0
32494 C8 54.1076 -0.758529 126.091 C.ar 0 **** 0
32495 C9 53.969 -2.23595 125.955 C.3 0 **** -0.106
32496 C10 54.1777 -0.0268703 127.272 C.ar 0 **** 0
32497 C11 54.3013 1.37797 127.242 C.ar 0 **** 0
32498 C12 54.3602 1.9889 125.959 C.ar 0 **** 0
32499 C13 54.3033 1.25175 124.771 C.ar 0 **** 0
32500 C14 54.3671 1.94734 123.44 C.3 0 **** -0.106
32501 C15 55.229 3.20731 123.524 C.3 0 **** -0.106
32502 C16 54.5898 4.13182 124.524 C.3 0 **** -0.106
32503 C17 54.503 3.50879 125.901 C.ar 0 **** 0
32504 C18 54.5344 4.28168 127.017 C.ar 0 **** 0
32505 C19 54.4478 3.71586 128.258 C.ar 0 **** 0
32506 C20 54.3621 2.1511 128.453 C.ar 0 **** 0
32507 C21 54.358 1.40999 129.702 C.ar 0 **** 0
32508 C22 54.2005 0.021639 129.632 C.ar 0 **** 0
32509 C23 54.1195 -0.689999 128.486 C.ar 0 **** 0.042
32510 C24 54.4459 4.61335 129.487 C.3 0 **** -0.106
32511 C25 54.2914 6.14115 129.232 C.ar 0 **** 0
32512 C26 54.4156 6.65122 127.963 C.ar 0 **** 0
32513 C27 54.6634 5.78258 126.773 C.3 0 **** -0.106
32514 C28 54.3311 8.02435 127.742 C.ar 0 **** 0.042
32515 C29 54.1358 8.92396 128.776 C.ar 0 **** 0
32516 C30 54.0013 8.38964 130.048 C.ar 0 **** 0
32517 C31 54.078 7.02053 130.29 C.ar 0 **** 0
32518 C32 53.7742 9.28659 131.275 C.ar 0 **** 0
32519 C33 53.7079 10.7829 130.953 C.3 0 **** -0.106
32520 C34 54.5675 11.164 129.75 C.3 0 **** -0.106
32521 C35 54.0457 10.4108 128.528 C.3 0 **** -0.106
32522 C36 53.9207 6.54414 131.719 C.ar 0 **** -0.1268
32523 C37 53.7287 7.44208 132.721 C.ar 0 **** 0.0265
32524 C38 53.6569 8.76549 132.522 C.ar 0 **** -0.1268
32525 C39 54.1502 -0.713316 130.92 C.3 0 **** -0.106
32526 C40 54.3614 0.457994 131.823 C.ar 0 **** 0
32527 C41 54.4778 1.66811 131.137 C.ar 0 **** 0
32528 C42 54.727 2.79916 131.942 C.ar 0 **** -0.1268
32529 C43 54.8046 2.71215 133.347 C.ar 0 **** 0
32530 C44 54.6615 1.47296 134.007 C.ar 0 **** 0
32531 C45 54.4466 0.330961 133.219 C.ar 0 **** 0
32532 C46 54.3343 -0.923605 133.857 C.ar 0 **** -0.1268
32533 C47 54.4236 -1.07171 135.233 C.ar 0 **** 0
32534 C48 54.6392 0.064836 135.99 C.ar 0 **** -0.1268
32535 C49 54.7619 1.33999 135.413 C.ar 0 **** 0
32536 C50 54.9937 2.495 136.181 C.ar 0 **** 0.042
32537 C51 55.1298 3.72402 135.566 C.ar 0 **** -0.1268
32538 C52 55.0473 3.83824 134.181 C.ar 0 **** -0.1268
32539 O53 53.6856 -4.64952 121.613 O.3 0 **** -0.452
32540 C54 53.8722 -2.20149 120.166 C.3 0 **** -0.159
32541 O55 53.9872 -2.02678 128.54 O.3 0 **** -0.452
32542 C56 54.2911 -2.48826 135.781 C.3 0 **** -0.106
32543 C57 54.2229 -2.53245 137.312 C.3 0 **** -0.159
32544 O58 53.6075 6.97417 133.974 O.3 0 **** -0.4365
32545 O59 54.4438 8.56442 126.489 O.3 0 **** -0.452
32546 O60 55.1067 2.50422 137.524 O.3 0 **** -0.452
32547 H61 53.7387 -4.48523 124.288 H 0 **** 0.1268
32548 H62 54.0587 -0.170994 121.837 H 0 **** 0.1268
32549 H63 54.826 -2.79929 126.366 H 0 **** 0.053
32550 H64 53.0299 -2.63317 126.382 H 0 **** 0.053
32551 H65 54.8116 1.31461 122.677 H 0 **** 0.053
32552 H66 53.3485 2.23776 123.101 H 0 **** 0.053
32553 H67 56.276 2.94505 123.813 H 0 **** 0.053
32554 H68 55.3013 3.70188 122.51 H 0 **** 0.053
32555 H69 55.1694 5.06274 124.548 H 0 **** 0.053
32556 H70 53.5782 4.39496 124.168 H 0 **** 0.053
32557 H71 53.6076 4.29763 130.143 H 0 **** 0.053
32558 H72 53.9283 6.04606 126.006 H 0 **** 0.053
32559 H73 52.6516 11.0554 130.753 H 0 **** 0.053
32560 H74 54.0128 11.3305 131.856 H 0 **** 0.053
32561 H75 54.5158 12.2465 129.58 H 0 **** 0.053
32562 H76 55.622 10.9167 129.938 H 0 **** 0.053
32563 H77 52.9981 10.6801 128.337 H 0 **** 0.053
32564 H78 54.6146 10.6806 127.646 H 0 **** 0.053
32565 H79 53.9521 5.48722 131.901 H 0 **** 0.1268
32566 H80 53.4904 9.45431 133.335 H 0 **** 0.1268
32567 H81 53.175 -1.18773 131.113 H 0 **** 0.053
32568 H82 54.9631 -1.44828 131.035 H 0 **** 0.053
32569 H83 54.9023 3.79853 131.571 H 0 **** 0.1268
32570 H84 54.1665 -1.83085 133.248 H 0 **** 0.1268
32571 H85 54.7154 -0.0476048 137.068 H 0 **** 0.1268
32572 H86 55.3166 4.64226 136.147 H 0 **** 0.1268
32573 H87 55.1983 4.83988 133.688 H 0 **** 0.1268
32574 H88 53.6279 -5.37586 122.219 H 0 **** 0.41
32575 H89 54.3481 -3.0872 119.73 H 0 **** 0.053
32576 H90 54.4079 -1.32495 119.776 H 0 **** 0.053
32577 H91 52.832 -2.16394 119.805 H 0 **** 0.053
32578 H92 53.9665 -2.32118 129.44 H 0 **** 0.41
32579 H93 53.3851 -2.95361 135.38 H 0 **** 0.053
32580 H94 54.1159 -3.57216 137.679 H 0 **** 0.053
32581 H95 53.3579 -1.96087 137.7 H 0 **** 0.053
32582 H96 55.1406 -2.12344 137.774 H 0 **** 0.053
32583 H97 53.5496 6.0324 133.986 H 0 **** 0.41
32584 H98 54.5851 7.88208 125.853 H 0 **** 0.41
32585 H99 55.0019 1.62122 137.854 H 0 **** 0.41
32586 H100 55.4368 4.48547 129.969 H 0 **** 0.053
32587 H101 55.6718 5.97297 126.388 H 0 **** 0.053
32588 H102 55.1425 -3.09252 135.448 H 0 **** 0.053
32589 C1 65.9845 48.0686 182.47 C.ar 0 **** 0.042
32590 C2 67.2228 47.7855 183.016 C.ar 0 **** -0.1268
32591 C3 68.2962 47.4608 182.203 C.ar 0 **** 0
32592 C4 68.1567 47.4098 180.816 C.ar 0 **** 0
32593 C5 66.9038 47.711 180.273 C.ar 0 **** -0.1268
32594 C6 65.8199 48.0248 181.079 C.ar 0 **** 0
32595 C7 69.4516 47.0392 180.265 C.ar 0 **** 0
32596 C8 70.3315 46.8922 181.323 C.ar 0 **** 0
32597 C9 69.6909 47.1383 182.646 C.3 0 **** -0.106
32598 C10 71.6587 46.5536 181.083 C.ar 0 **** 0
32599 C11 72.1247 46.3583 179.766 C.ar 0 **** 0
32600 C12 71.1742 46.5141 178.72 C.ar 0 **** 0
32601 C13 69.8355 46.8415 178.963 C.ar 0 **** 0
32602 C14 68.8714 46.9969 177.82 C.3 0 **** -0.106
32603 C15 69.2389 46.065 176.665 C.3 0 **** -0.106
32604 C16 70.6157 46.4451 176.193 C.3 0 **** -0.106
32605 C17 71.6533 46.299 177.286 C.ar 0 **** 0
32606 C18 72.9449 46.0083 176.984 C.ar 0 **** 0
32607 C19 73.8798 45.885 177.973 C.ar 0 **** 0
32608 C20 73.4971 46.0202 179.499 C.ar 0 **** 0
32609 C21 74.3581 45.8246 180.652 C.ar 0 **** 0
32610 C22 73.8146 46.0715 181.917 C.ar 0 **** 0
32611 C23 72.5284 46.4133 182.152 C.ar 0 **** 0.042
32612 C24 75.3263 45.5979 177.598 C.3 0 **** -0.106
32613 C25 75.6895 45.7114 176.088 C.ar 0 **** 0
32614 C26 74.701 45.8066 175.14 C.ar 0 **** 0
32615 C27 73.2512 45.8438 175.498 C.3 0 **** -0.106
32616 C28 75.0237 45.8541 173.785 C.ar 0 **** 0.042
32617 C29 76.3329 45.7942 173.34 C.ar 0 **** 0
32618 C30 77.3175 45.71 174.312 C.ar 0 **** 0
32619 C31 77.0169 45.6658 175.671 C.ar 0 **** 0
32620 C32 78.8082 45.645 173.942 C.ar 0 **** 0
32621 C33 79.0808 45.6864 172.435 C.3 0 **** -0.106
32622 C34 77.9564 45.0559 171.616 C.3 0 **** -0.106
32623 C35 76.6747 45.8462 171.87 C.3 0 **** -0.106
32624 C36 78.1708 45.5733 176.649 C.ar 0 **** -0.1268
32625 C37 79.45 45.5205 176.193 C.ar 0 **** 0.0265
32626 C38 79.7714 45.5524 174.892 C.ar 0 **** -0.1268
32627 C39 74.7224 45.9134 183.08 C.3 0 **** -0.106
32628 C40 75.9315 45.4646 182.326 C.ar 0 **** 0
32629 C41 75.7311 45.4145 180.945 C.ar 0 **** 0
32630 C42 76.8287 44.9499 180.191 C.ar 0 **** -0.1268
32631 C43 78.0567 44.6063 180.794 C.ar 0 **** 0
32632 C44 78.227 44.6893 182.192 C.ar 0 **** 0
32633 C45 77.1341 45.1179 182.962 C.ar 0 **** 0
32634 C46 77.2732 45.1764 184.366 C.ar 0 **** -0.1268
32635 C47 78.4493 44.8314 185.014 C.ar 0 **** 0
32636 C48 79.5124 44.4089 184.238 C.ar 0 **** -0.1268
32637 C49 79.4345 44.3272 182.837 C.ar 0 **** 0
32638 C50 80.5112 43.887 182.047 C.ar 0 **** 0.042
32639 C51 80.3791 43.8021 180.675 C.ar 0 **** -0.1268
32640 C52 79.1803 44.1435 180.055 C.ar 0 **** -0.1268
32641 O53 64.9172 48.3937 183.273 O.3 0 **** -0.452
32642 C54 64.4696 48.3506 180.459 C.3 0 **** -0.159
32643 O55 72.1106 46.6089 183.415 O.3 0 **** -0.452
32644 C56 78.4514 44.936 186.535 C.3 0 **** -0.106
32645 C57 79.8379 44.7094 187.148 C.3 0 **** -0.159
32646 O58 80.439 45.43 177.097 O.3 0 **** -0.4365
32647 O59 74.0637 45.9556 172.816 O.3 0 **** -0.452
32648 O60 81.7114 43.5184 182.536 O.3 0 **** -0.452
32649 H61 67.3951 47.8139 184.117 H 0 **** 0.1268
32650 H62 66.6968 47.7294 179.194 H 0 **** 0.1268
32651 H63 69.6845 46.2513 183.305 H 0 **** 0.053
32652 H64 70.1207 47.998 183.192 H 0 **** 0.053
32653 H65 67.8565 46.7451 178.114 H 0 **** 0.053
32654 H66 68.8746 48.0438 177.444 H 0 **** 0.053
32655 H67 69.1942 44.9985 176.996 H 0 **** 0.053
32656 H68 68.4869 46.1621 175.827 H 0 **** 0.053
32657 H69 70.8645 45.8197 175.327 H 0 **** 0.053
32658 H70 70.5923 47.4898 175.836 H 0 **** 0.053
32659 H71 75.9732 46.3102 178.152 H 0 **** 0.053
32660 H72 72.7997 46.6973 174.982 H 0 **** 0.053
32661 H73 79.2114 46.7441 172.127 H 0 **** 0.053
32662 H74 80.0409 45.1824 172.257 H 0 **** 0.053
32663 H75 78.2122 45.0782 170.549 H 0 **** 0.053
32664 H76 77.8244 44.0007 171.894 H 0 **** 0.053
32665 H77 76.8108 46.894 171.57 H 0 **** 0.053
32666 H78 75.859 45.4446 171.279 H 0 **** 0.053
32667 H79 77.9389 45.566 177.696 H 0 **** 0.1268
32668 H80 80.7966 45.5173 174.558 H 0 **** 0.1268
32669 H81 74.9179 46.8585 183.611 H 0 **** 0.053
32670 H82 74.3923 45.1371 183.789 H 0 **** 0.053
32671 H83 76.8257 44.7939 179.122 H 0 **** 0.1268
32672 H84 76.4198 45.5107 184.984 H 0 **** 0.1268
32673 H85 80.4346 44.1324 184.742 H 0 **** 0.1268
32674 H86 81.2076 43.4544 180.036 H 0 **** 0.1268
32675 H87 79.0713 44.0342 178.939 H 0 **** 0.1268
32676 H88 65.2099 48.3724 184.174 H 0 **** 0.41
32677 H89 63.6508 48.0194 181.109 H 0 **** 0.053
32678 H90 64.3313 47.8515 179.49 H 0 **** 0.053
32679 H91 64.3641 49.4371 180.31 H 0 **** 0.053
32680 H92 72.8229 46.4712 184.024 H 0 **** 0.41
32681 H93 78.0971 45.9277 186.835 H 0 **** 0.053
32682 H94 79.8095 44.8023 188.252 H 0 **** 0.053
32683 H95 80.5744 45.449 186.779 H 0 **** 0.053
32684 H96 80.2244 43.6979 186.923 H 0 **** 0.053
32685 H97 80.1061 45.5131 177.976 H 0 **** 0.41
32686 H98 73.206 45.9796 173.208 H 0 **** 0.41
32687 H99 81.7055 43.6023 183.481 H 0 **** 0.41
32688 H100 75.5175 44.5416 177.877 H 0 **** 0.053
32689 H101 72.7691 44.9199 175.158 H 0 **** 0.053
32690 H102 77.755 44.2011 186.955 H 0 **** 0.053
32691 C1 29.183 13.8771 174.797 C.ar 0 **** 0.042
32692 C2 28.3439 14.9522 174.57 C.ar 0 **** -0.1268
32693 C3 28.7939 16.068 173.884 C.ar 0 **** 0
32694 C4 30.103 16.1372 173.405 C.ar 0 **** 0
32695 C5 30.9394 15.0392 173.628 C.ar 0 **** -0.1268
32696 C6 30.5021 13.9228 174.324 C.ar 0 **** 0
32697 C7 30.2531 17.4251 172.745 C.ar 0 **** 0
32698 C8 29.0397 18.0852 172.83 C.ar 0 **** 0
32699 C9 28.0042 17.299 173.558 C.3 0 **** -0.106
32700 C10 28.8917 19.3455 172.261 C.ar 0 **** 0
32701 C11 29.9683 19.9646 171.592 C.ar 0 **** 0
32702 C12 31.1927 19.2434 171.544 C.ar 0 **** 0
32703 C13 31.3459 17.9809 172.128 C.ar 0 **** 0
32704 C14 32.6618 17.2596 172.046 C.3 0 **** -0.106
32705 C15 33.8271 18.2492 172.036 C.3 0 **** -0.106
32706 C16 33.6751 19.1199 170.818 C.3 0 **** -0.106
32707 C17 32.3759 19.8973 170.833 C.ar 0 **** 0
32708 C18 32.2823 21.1066 170.222 C.ar 0 **** 0
32709 C19 31.1056 21.8014 170.231 C.ar 0 **** 0
32710 C20 29.8286 21.2624 170.988 C.ar 0 **** 0
32711 C21 28.5494 21.9284 171.159 C.ar 0 **** 0
32712 C22 27.5319 21.2226 171.81 C.ar 0 **** 0
32713 C23 27.6699 19.9924 172.351 C.ar 0 **** 0.042
32714 C24 31.0234 23.1354 169.503 C.3 0 **** -0.106
32715 C25 32.2245 23.5015 168.583 C.ar 0 **** 0
32716 C26 33.3906 22.7786 168.64 C.ar 0 **** 0
32717 C27 33.5573 21.601 169.544 C.3 0 **** -0.106
32718 C28 34.4838 23.1375 167.855 C.ar 0 **** 0.042
32719 C29 34.4512 24.2308 167.007 C.ar 0 **** 0
32720 C30 33.2622 24.9419 166.954 C.ar 0 **** 0
32721 C31 32.1561 24.5967 167.726 C.ar 0 **** 0
32722 C32 33.1009 26.1698 166.043 C.ar 0 **** 0
32723 C33 34.3497 26.5066 165.223 C.3 0 **** -0.106
32724 C34 35.6432 26.125 165.939 C.3 0 **** -0.106
32725 C35 35.6408 24.6141 166.159 C.3 0 **** -0.106
32726 C36 30.9052 25.4409 167.588 C.ar 0 **** -0.1268
32727 C37 30.8895 26.506 166.744 C.ar 0 **** 0.0265
32728 C38 31.9409 26.8706 165.996 C.ar 0 **** -0.1268
32729 C39 26.2178 21.9003 171.932 C.3 0 **** -0.106
32730 C40 26.6022 23.1926 171.288 C.ar 0 **** 0
32731 C41 27.9258 23.2136 170.844 C.ar 0 **** 0
32732 C42 28.353 24.43 170.272 C.ar 0 **** -0.1268
32733 C43 27.4824 25.5292 170.119 C.ar 0 **** 0
32734 C44 26.1444 25.4624 170.563 C.ar 0 **** 0
32735 C45 25.7113 24.2707 171.166 C.ar 0 **** 0
32736 C46 24.3858 24.1948 171.646 C.ar 0 **** -0.1268
32737 C47 23.4928 25.2503 171.542 C.ar 0 **** 0
32738 C48 23.9403 26.4158 170.948 C.ar 0 **** -0.1268
32739 C49 25.2479 26.5531 170.453 C.ar 0 **** 0
32740 C50 25.7079 27.7418 169.859 C.ar 0 **** 0.042
32741 C51 27.0096 27.8365 169.407 C.ar 0 **** -0.1268
32742 C52 27.8863 26.7629 169.538 C.ar 0 **** -0.1268
32743 O53 28.74 12.7667 175.475 O.3 0 **** -0.452
32744 C54 31.4346 12.7423 174.549 C.3 0 **** -0.159
32745 O55 26.6255 19.4159 172.971 O.3 0 **** -0.452
32746 C56 22.0963 25.0277 172.112 C.3 0 **** -0.106
32747 C57 21.1305 26.1745 171.794 C.3 0 **** -0.159
32748 O58 29.758 27.2244 166.655 O.3 0 **** -0.4365
32749 O59 35.6565 22.4328 167.881 O.3 0 **** -0.452
32750 O60 24.9563 28.8473 169.691 O.3 0 **** -0.452
32751 H61 27.2879 14.9524 174.925 H 0 **** 0.1268
32752 H62 31.975 14.9805 173.266 H 0 **** 0.1268
32753 H63 27.6553 17.7835 174.488 H 0 **** 0.053
32754 H64 27.1315 17.0324 172.934 H 0 **** 0.053
32755 H65 32.8149 16.6056 172.9 H 0 **** 0.053
32756 H66 32.7138 16.6426 171.122 H 0 **** 0.053
32757 H67 33.8357 18.8514 172.977 H 0 **** 0.053
32758 H68 34.8122 17.6962 172.012 H 0 **** 0.053
32759 H69 34.5382 19.7953 170.771 H 0 **** 0.053
32760 H70 33.7198 18.4818 169.918 H 0 **** 0.053
32761 H71 30.1094 23.1279 168.873 H 0 **** 0.053
32762 H72 33.9439 20.77 168.946 H 0 **** 0.053
32763 H73 34.2931 25.9731 164.253 H 0 **** 0.053
32764 H74 34.3177 27.5797 164.997 H 0 **** 0.053
32765 H75 36.5081 26.4202 165.332 H 0 **** 0.053
32766 H76 35.7246 26.6578 166.897 H 0 **** 0.053
32767 H77 35.5793 24.0913 165.195 H 0 **** 0.053
32768 H78 36.5614 24.3004 166.639 H 0 **** 0.053
32769 H79 30.0454 25.158 168.164 H 0 **** 0.1268
32770 H80 31.8995 27.7178 165.33 H 0 **** 0.1268
32771 H81 25.4163 21.4009 171.365 H 0 **** 0.053
32772 H82 25.9054 22.0605 172.977 H 0 **** 0.053
32773 H83 29.3573 24.6375 169.932 H 0 **** 0.1268
32774 H84 24.0325 23.2628 172.124 H 0 **** 0.1268
32775 H85 23.2447 27.2475 170.869 H 0 **** 0.1268
32776 H86 27.3939 28.7603 168.944 H 0 **** 0.1268
32777 H87 28.9568 26.8649 169.202 H 0 **** 0.1268
32778 H88 27.8354 12.9118 175.717 H 0 **** 0.41
32779 H89 31.2224 12.2523 175.506 H 0 **** 0.053
32780 H90 32.489 13.0506 174.574 H 0 **** 0.053
32781 H91 31.3092 11.9929 173.751 H 0 **** 0.053
32782 H92 25.8706 19.9874 172.949 H 0 **** 0.41
32783 H93 21.6786 24.0997 171.708 H 0 **** 0.053
32784 H94 20.123 25.9793 172.211 H 0 **** 0.053
32785 H95 21.0074 26.315 170.702 H 0 **** 0.053
32786 H96 21.4751 27.1322 172.227 H 0 **** 0.053
32787 H97 29.0687 26.841 167.173 H 0 **** 0.41
32788 H98 35.5958 21.7221 168.498 H 0 **** 0.41
32789 H99 24.0854 28.6923 170.034 H 0 **** 0.41
32790 H100 30.9945 23.9181 170.289 H 0 **** 0.053
32791 H101 34.28 21.8463 170.331 H 0 **** 0.053
32792 H102 22.1583 24.9098 173.2 H 0 **** 0.053
32793 C1 22.6904 81.1903 149.381 C.ar 0 **** 0.042
32794 C2 21.4844 81.1492 148.707 C.ar 0 **** -0.1268
32795 C3 21.4496 81.0591 147.325 C.ar 0 **** 0
32796 C4 22.6278 81.0102 146.578 C.ar 0 **** 0
32797 C5 23.8423 81.0373 147.271 C.ar 0 **** -0.1268
32798 C6 23.8875 81.1394 148.654 C.ar 0 **** 0
32799 C7 22.2458 80.9321 145.176 C.ar 0 **** 0
32800 C8 20.8638 80.9117 145.117 C.ar 0 **** 0
32801 C9 20.2268 80.9993 146.461 C.3 0 **** -0.106
32802 C10 20.2225 80.8177 143.886 C.ar 0 **** 0
32803 C11 20.9667 80.7332 142.69 C.ar 0 **** 0
32804 C12 22.3828 80.7661 142.813 C.ar 0 **** 0
32805 C13 23.0257 80.8862 144.049 C.ar 0 **** 0
32806 C14 24.5201 80.9234 144.125 C.3 0 **** -0.106
32807 C15 25.1311 81.56 142.881 C.3 0 **** -0.106
32808 C16 24.7172 80.7369 141.69 C.3 0 **** -0.106
32809 C17 23.2119 80.6808 141.532 C.ar 0 **** 0
32810 C18 22.6458 80.5446 140.305 C.ar 0 **** 0
32811 C19 21.2872 80.4862 140.169 C.ar 0 **** 0
32812 C20 20.3199 80.6234 141.41 C.ar 0 **** 0
32813 C21 18.8686 80.673 141.406 C.ar 0 **** 0
32814 C22 18.2176 80.7264 142.644 C.ar 0 **** 0
32815 C23 18.8386 80.8045 143.841 C.ar 0 **** 0.042
32816 C24 20.6858 80.2955 138.785 C.3 0 **** -0.106
32817 C25 21.6758 79.9284 137.642 C.ar 0 **** 0
32818 C26 23.0316 80.0328 137.833 C.ar 0 **** 0
32819 C27 23.6232 80.4604 139.136 C.3 0 **** -0.106
32820 C28 23.9161 79.7555 136.793 C.ar 0 **** 0.042
32821 C29 23.4761 79.3833 135.535 C.ar 0 **** 0
32822 C30 22.1045 79.2733 135.363 C.ar 0 **** 0
32823 C31 21.2036 79.5394 136.391 C.ar 0 **** 0
32824 C32 21.4947 78.8628 134.015 C.ar 0 **** 0
32825 C33 22.529 78.5957 132.921 C.3 0 **** -0.106
32826 C34 23.7917 79.4381 133.075 C.3 0 **** -0.106
32827 C35 24.4411 79.0857 134.412 C.3 0 **** -0.106
32828 C36 19.7255 79.3855 136.094 C.ar 0 **** -0.1268
32829 C37 19.3125 79.0126 134.854 C.ar 0 **** 0.0265
32830 C38 20.1537 78.7586 133.842 C.ar 0 **** -0.1268
32831 C39 16.7345 80.727 142.622 C.3 0 **** -0.106
32832 C40 16.56 80.7214 141.138 C.ar 0 **** 0
32833 C41 17.7697 80.6884 140.442 C.ar 0 **** 0
32834 C42 17.6608 80.7308 139.036 C.ar 0 **** -0.1268
32835 C43 16.4098 80.7564 138.385 C.ar 0 **** 0
32836 C44 15.2075 80.7684 139.124 C.ar 0 **** 0
32837 C45 15.2976 80.7609 140.525 C.ar 0 **** 0
32838 C46 14.1072 80.8058 141.283 C.ar 0 **** -0.1268
32839 C47 12.8513 80.8527 140.697 C.ar 0 **** 0
32840 C48 12.7848 80.8628 139.316 C.ar 0 **** -0.1268
32841 C49 13.9333 80.822 138.508 C.ar 0 **** 0
32842 C50 13.8676 80.8433 137.104 C.ar 0 **** 0.042
32843 C51 15.0259 80.8246 136.352 C.ar 0 **** -0.1268
32844 C52 16.273 80.7907 136.97 C.ar 0 **** -0.1268
32845 O53 22.7287 81.2785 150.752 O.3 0 **** -0.452
32846 C54 25.2235 81.165 149.38 C.3 0 **** -0.159
32847 O55 18.1094 80.8708 144.968 O.3 0 **** -0.452
32848 C56 11.655 80.9061 141.641 C.3 0 **** -0.106
32849 C57 10.3129 80.7749 140.913 C.3 0 **** -0.159
32850 O58 17.9923 78.8963 134.636 O.3 0 **** -0.4365
32851 O59 25.2723 79.8425 136.952 O.3 0 **** -0.452
32852 O60 12.7209 80.889 136.398 O.3 0 **** -0.452
32853 H61 20.5115 81.1826 149.249 H 0 **** 0.1268
32854 H62 24.8236 80.9675 146.781 H 0 **** 0.1268
32855 H63 19.6186 81.9113 146.601 H 0 **** 0.053
32856 H64 19.6233 80.1111 146.723 H 0 **** 0.053
32857 H65 24.8753 81.4821 144.984 H 0 **** 0.053
32858 H66 24.8999 79.8922 144.211 H 0 **** 0.053
32859 H67 24.7923 82.6205 142.788 H 0 **** 0.053
32860 H68 26.2572 81.599 142.968 H 0 **** 0.053
32861 H69 25.1903 81.1677 140.798 H 0 **** 0.053
32862 H70 25.1191 79.7149 141.801 H 0 **** 0.053
32863 H71 19.9304 79.4842 138.847 H 0 **** 0.053
32864 H72 24.3905 79.7303 139.413 H 0 **** 0.053
32865 H73 22.8027 77.5246 132.963 H 0 **** 0.053
32866 H74 22.0395 78.7695 131.954 H 0 **** 0.053
32867 H75 24.4838 79.2305 132.25 H 0 **** 0.053
32868 H76 23.5461 80.5084 133.031 H 0 **** 0.053
32869 H77 24.7036 78.0192 134.436 H 0 **** 0.053
32870 H78 25.3593 79.6466 134.546 H 0 **** 0.053
32871 H79 19.0335 79.5664 136.894 H 0 **** 0.1268
32872 H80 19.799 78.4561 132.869 H 0 **** 0.1268
32873 H81 16.2929 79.825 143.074 H 0 **** 0.053
32874 H82 16.2921 81.6335 143.065 H 0 **** 0.053
32875 H83 18.4942 80.7722 138.35 H 0 **** 0.1268
32876 H84 14.1645 80.8018 142.387 H 0 **** 0.1268
32877 H85 11.8022 80.9049 138.854 H 0 **** 0.1268
32878 H86 14.9986 80.8469 135.25 H 0 **** 0.1268
32879 H87 17.2119 80.8144 136.348 H 0 **** 0.1268
32880 H88 21.8364 81.2997 151.071 H 0 **** 0.41
32881 H89 25.1669 81.7864 150.282 H 0 **** 0.053
32882 H90 26.0238 81.5822 148.753 H 0 **** 0.053
32883 H91 25.5158 80.1483 149.688 H 0 **** 0.053
32884 H92 17.1847 80.85 144.765 H 0 **** 0.41
32885 H93 11.7315 80.0984 142.376 H 0 **** 0.053
32886 H94 9.46468 80.8064 141.625 H 0 **** 0.053
32887 H95 10.238 79.818 140.361 H 0 **** 0.053
32888 H96 10.1559 81.5997 140.193 H 0 **** 0.053
32889 H97 17.5029 79.0085 135.435 H 0 **** 0.41
32890 H98 25.4811 80.1127 137.832 H 0 **** 0.41
32891 H99 11.9841 80.9079 136.995 H 0 **** 0.41
32892 H100 20.242 81.2712 138.5 H 0 **** 0.053
32893 H101 24.0878 81.4462 139.018 H 0 **** 0.053
32894 H102 11.6659 81.852 142.195 H 0 **** 0.053
32895 C1 28.8087 88.0362 125.49 C.ar 0 **** 0.042
32896 C2 28.2717 86.9278 126.117 C.ar 0 **** -0.1268
32897 C3 28.1937 85.7125 125.457 C.ar 0 **** 0
32898 C4 28.649 85.5763 124.144 C.ar 0 **** 0
32899 C5 29.1983 86.701 123.523 C.ar 0 **** -0.1268
32900 C6 29.2719 87.9235 124.172 C.ar 0 **** 0
32901 C7 28.4238 84.1941 123.75 C.ar 0 **** 0
32902 C8 27.8576 83.537 124.829 C.ar 0 **** 0
32903 C9 27.6535 84.4274 126.006 C.3 0 **** -0.106
32904 C10 27.5491 82.1846 124.735 C.ar 0 **** 0
32905 C11 27.8089 81.4675 123.548 C.ar 0 **** 0
32906 C12 28.3833 82.1965 122.471 C.ar 0 **** 0
32907 C13 28.6816 83.5605 122.56 C.ar 0 **** 0
32908 C14 29.2909 84.2842 121.393 C.3 0 **** -0.106
32909 C15 28.8117 83.6863 120.07 C.3 0 **** -0.106
32910 C16 29.2527 82.2484 120.033 C.3 0 **** -0.106
32911 C17 28.6654 81.4431 121.173 C.ar 0 **** 0
32912 C18 28.4251 80.114 121.033 C.ar 0 **** 0
32913 C19 27.9022 79.3895 122.067 C.ar 0 **** 0
32914 C20 27.5074 80.0655 123.439 C.ar 0 **** 0
32915 C21 26.8634 79.4454 124.583 C.ar 0 **** 0
32916 C22 26.6747 80.2287 125.727 C.ar 0 **** 0
32917 C23 26.9855 81.5399 125.824 C.ar 0 **** 0.042
32918 C24 27.6822 77.8941 121.891 C.3 0 **** -0.106
32919 C25 28.3042 77.2437 120.621 C.ar 0 **** 0
32920 C26 28.7897 78.0284 119.604 C.ar 0 **** 0
32921 C27 28.7831 79.5205 119.674 C.3 0 **** -0.106
32922 C28 29.2977 77.4472 118.444 C.ar 0 **** 0.042
32923 C29 29.3226 76.0755 118.26 C.ar 0 **** 0
32924 C30 28.8391 75.2994 119.302 C.ar 0 **** 0
32925 C31 28.3315 75.8598 120.472 C.ar 0 **** 0
32926 C32 28.8217 73.7645 119.219 C.ar 0 **** 0
32927 C33 29.3811 73.2025 117.908 C.3 0 **** -0.106
32928 C34 29.152 74.137 116.722 C.3 0 **** -0.106
32929 C35 29.8746 75.4532 117 C.3 0 **** -0.106
32930 C36 27.8286 74.9187 121.548 C.ar 0 **** -0.1268
32931 C37 27.866 73.5743 121.351 C.ar 0 **** 0.0265
32932 C38 28.3397 73.0049 120.234 C.ar 0 **** -0.1268
32933 C39 26.0591 79.5647 126.902 C.3 0 **** -0.106
32934 C40 25.8375 78.226 126.276 C.ar 0 **** 0
32935 C41 26.2953 78.1521 124.959 C.ar 0 **** 0
32936 C42 26.0661 76.9235 124.306 C.ar 0 **** -0.1268
32937 C43 25.4571 75.8332 124.962 C.ar 0 **** 0
32938 C44 25.0255 75.9396 126.301 C.ar 0 **** 0
32939 C45 25.2156 77.1665 126.956 C.ar 0 **** 0
32940 C46 24.763 77.305 128.287 C.ar 0 **** -0.1268
32941 C47 24.1418 76.2722 128.972 C.ar 0 **** 0
32942 C48 23.9596 75.0745 128.306 C.ar 0 **** -0.1268
32943 C49 24.3892 74.8767 126.985 C.ar 0 **** 0
32944 C50 24.2071 73.6614 126.302 C.ar 0 **** 0.042
32945 C51 24.6178 73.5235 124.992 C.ar 0 **** -0.1268
32946 C52 25.2236 74.583 124.325 C.ar 0 **** -0.1268
32947 O53 28.9019 89.2413 126.143 O.3 0 **** -0.452
32948 C54 29.8768 89.1283 123.474 C.3 0 **** -0.159
32949 O55 26.7418 82.1994 126.969 O.3 0 **** -0.452
32950 C56 23.696 76.565 130.4 C.3 0 **** -0.106
32951 C57 23.1839 75.3199 131.133 C.3 0 **** -0.159
32952 O58 27.4018 72.7803 122.33 O.3 0 **** -0.4365
32953 O59 29.7955 78.1998 117.416 O.3 0 **** -0.452
32954 O60 23.6385 72.566 126.833 O.3 0 **** -0.452
32955 H61 27.8967 86.9756 127.164 H 0 **** 0.1268
32956 H62 29.6126 86.6939 122.505 H 0 **** 0.1268
32957 H63 26.5921 84.5515 126.287 H 0 **** 0.053
32958 H64 28.2356 84.124 126.896 H 0 **** 0.053
32959 H65 29.0117 85.3338 121.38 H 0 **** 0.053
32960 H66 30.4009 84.2203 121.428 H 0 **** 0.053
32961 H67 27.7022 83.7815 119.978 H 0 **** 0.053
32962 H68 29.2456 84.2607 119.199 H 0 **** 0.053
32963 H69 28.9635 81.827 119.062 H 0 **** 0.053
32964 H70 30.3555 82.2142 120.08 H 0 **** 0.053
32965 H71 28.1105 77.377 122.776 H 0 **** 0.053
32966 H72 29.7896 79.8727 119.426 H 0 **** 0.053
32967 H73 30.4691 73.0273 118.034 H 0 **** 0.053
32968 H74 28.9172 72.2202 117.743 H 0 **** 0.053
32969 H75 29.5373 73.6775 115.804 H 0 **** 0.053
32970 H76 28.0765 74.308 116.571 H 0 **** 0.053
32971 H77 30.9506 75.274 117.13 H 0 **** 0.053
32972 H78 29.7589 76.1324 116.163 H 0 **** 0.053
32973 H79 27.4621 75.3512 122.459 H 0 **** 0.1268
32974 H80 28.3644 71.9338 120.108 H 0 **** 0.1268
32975 H81 26.7392 79.4876 127.764 H 0 **** 0.053
32976 H82 25.1019 80.0168 127.207 H 0 **** 0.053
32977 H83 26.3012 76.7139 123.273 H 0 **** 0.1268
32978 H84 24.9046 78.2666 128.814 H 0 **** 0.1268
32979 H85 23.4646 74.2693 128.841 H 0 **** 0.1268
32980 H86 24.4702 72.5811 124.44 H 0 **** 0.1268
32981 H87 25.5251 74.47 123.246 H 0 **** 0.1268
32982 H88 28.5187 89.1421 127.003 H 0 **** 0.41
32983 H89 29.3819 90.0457 123.808 H 0 **** 0.053
32984 H90 29.7601 89.0744 122.383 H 0 **** 0.053
32985 H91 30.9491 89.2191 123.708 H 0 **** 0.053
32986 H92 26.3567 81.6177 127.61 H 0 **** 0.41
32987 H93 24.5327 76.9859 130.967 H 0 **** 0.053
32988 H94 22.8776 75.5528 132.171 H 0 **** 0.053
32989 H95 23.962 74.5365 131.2 H 0 **** 0.053
32990 H96 22.2973 74.8879 130.634 H 0 **** 0.053
32991 H97 27.1817 73.28 123.1 H 0 **** 0.41
32992 H98 29.7279 79.118 117.622 H 0 **** 0.41
32993 H99 23.3455 72.7565 127.715 H 0 **** 0.41
32994 H100 26.5864 77.7483 121.8 H 0 **** 0.053
32995 H101 28.0714 79.9152 118.939 H 0 **** 0.053
32996 H102 22.9019 77.3194 130.381 H 0 **** 0.053
32997 C1 52.7982 70.9384 146.598 C.ar 0 **** 0.042
32998 C2 52.0598 72.0273 147.023 C.ar 0 **** -0.1268
32999 C3 52.679 73.1095 147.626 C.ar 0 **** 0
33000 C4 54.0606 73.1291 147.822 C.ar 0 **** 0
33001 C5 54.7997 72.0288 147.377 C.ar 0 **** -0.1268
33002 C6 54.1877 70.935 146.783 C.ar 0 **** 0
33003 C7 54.3854 74.3874 148.476 C.ar 0 **** 0
33004 C8 53.2057 75.0917 148.643 C.ar 0 **** 0
33005 C9 52.0162 74.3559 148.129 C.3 0 **** -0.106
33006 C10 53.2238 76.3504 149.233 C.ar 0 **** 0
33007 C11 54.4373 76.9249 149.666 C.ar 0 **** 0
33008 C12 55.6158 76.1521 149.477 C.ar 0 **** 0
33009 C13 55.5961 74.8796 148.895 C.ar 0 **** 0
33010 C14 56.8716 74.105 148.717 C.3 0 **** -0.106
33011 C15 57.8663 74.4257 149.832 C.3 0 **** -0.106
33012 C16 58.1774 75.8957 149.758 C.3 0 **** -0.106
33013 C17 56.9414 76.7496 149.946 C.ar 0 **** 0
33014 C18 57.0301 77.9901 150.491 C.ar 0 **** 0
33015 C19 55.913 78.7606 150.653 C.ar 0 **** 0
33016 C20 54.476 78.231 150.267 C.ar 0 **** 0
33017 C21 53.2006 78.8957 150.467 C.ar 0 **** 0
33018 C22 52.0535 78.2619 149.977 C.ar 0 **** 0
33019 C23 52.035 77.0445 149.391 C.ar 0 **** 0.042
33020 C24 56.0525 80.1616 151.23 C.3 0 **** -0.106
33021 C25 57.5003 80.7168 151.367 C.ar 0 **** 0
33022 C26 58.582 79.884 151.219 C.ar 0 **** 0
33023 C27 58.4353 78.4349 150.887 C.3 0 **** -0.106
33024 C28 59.8763 80.369 151.394 C.ar 0 **** 0.042
33025 C29 60.127 81.6871 151.734 C.ar 0 **** 0
33026 C30 59.0235 82.5154 151.868 C.ar 0 **** 0
33027 C31 57.7221 82.0522 151.693 C.ar 0 **** 0
33028 C32 59.1741 84.0005 152.236 C.ar 0 **** 0
33029 C33 60.625 84.4536 152.427 C.3 0 **** -0.106
33030 C34 61.5262 83.3364 152.949 C.3 0 **** -0.106
33031 C35 61.5327 82.2051 151.923 C.3 0 **** -0.106
33032 C36 56.5887 83.0433 151.863 C.ar 0 **** -0.1268
33033 C37 56.8543 84.3348 152.193 C.ar 0 **** 0.0265
33034 C38 58.0944 84.8091 152.377 C.ar 0 **** -0.1268
33035 C39 50.7658 78.9785 150.147 C.3 0 **** -0.106
33036 C40 51.2984 80.1609 150.89 C.ar 0 **** 0
33037 C41 52.6819 80.1216 151.071 C.ar 0 **** 0
33038 C42 53.2262 81.1943 151.808 C.ar 0 **** -0.1268
33039 C43 52.429 82.2556 152.285 C.ar 0 **** 0
33040 C44 51.0368 82.271 152.064 C.ar 0 **** 0
33041 C45 50.4728 81.1943 151.36 C.ar 0 **** 0
33042 C46 49.0786 81.1828 151.146 C.ar 0 **** -0.1268
33043 C47 48.2533 82.2027 151.59 C.ar 0 **** 0
33044 C48 48.8196 83.2398 152.301 C.ar 0 **** -0.1268
33045 C49 50.199 83.3056 152.548 C.ar 0 **** 0
33046 C50 50.7819 84.3661 153.264 C.ar 0 **** 0.042
33047 C51 52.1434 84.3841 153.489 C.ar 0 **** -0.1268
33048 C52 52.9538 83.3526 153.022 C.ar 0 **** -0.1268
33049 O53 52.188 69.8638 145.996 O.3 0 **** -0.452
33050 C54 55.0188 69.7536 146.307 C.3 0 **** -0.159
33051 O55 50.8685 76.523 148.973 O.3 0 **** -0.452
33052 C56 46.7763 82.0467 151.307 C.3 0 **** -0.106
33053 C57 45.9336 83.2579 151.709 C.3 0 **** -0.159
33054 O58 55.8163 85.1741 152.342 O.3 0 **** -0.4365
33055 O59 60.9759 79.568 151.246 O.3 0 **** -0.452
33056 O60 50.0931 85.4068 153.771 O.3 0 **** -0.452
33057 H61 50.9543 72.0697 146.89 H 0 **** 0.1268
33058 H62 55.8932 71.9584 147.456 H 0 **** 0.1268
33059 H63 51.28 74.1043 148.914 H 0 **** 0.053
33060 H64 51.5028 74.8713 147.296 H 0 **** 0.053
33061 H65 56.6987 73.0331 148.751 H 0 **** 0.053
33062 H66 57.3451 74.3494 147.74 H 0 **** 0.053
33063 H67 57.4417 74.1422 150.826 H 0 **** 0.053
33064 H68 58.8062 73.8105 149.71 H 0 **** 0.053
33065 H69 58.9344 76.1238 150.518 H 0 **** 0.053
33066 H70 58.6357 76.1115 148.776 H 0 **** 0.053
33067 H71 55.487 80.8601 150.578 H 0 **** 0.053
33068 H72 59.0907 78.2165 150.038 H 0 **** 0.053
33069 H73 61.0142 84.8161 151.454 H 0 **** 0.053
33070 H74 60.6168 85.3159 153.108 H 0 **** 0.053
33071 H75 62.5436 83.7169 153.102 H 0 **** 0.053
33072 H76 61.1659 82.9761 153.923 H 0 **** 0.053
33073 H77 61.9134 82.5702 150.96 H 0 **** 0.053
33074 H78 62.1886 81.4046 152.247 H 0 **** 0.053
33075 H79 55.5881 82.691 151.702 H 0 **** 0.1268
33076 H80 58.277 85.8416 152.63 H 0 **** 0.1268
33077 H81 50.3091 79.2845 149.192 H 0 **** 0.053
33078 H82 50.0357 78.4262 150.76 H 0 **** 0.053
33079 H83 54.2643 81.2905 152.089 H 0 **** 0.1268
33080 H84 48.6166 80.3381 150.6 H 0 **** 0.1268
33081 H85 48.1637 84.0242 152.671 H 0 **** 0.1268
33082 H86 52.6215 85.2039 154.048 H 0 **** 0.1268
33083 H87 54.0574 83.3597 153.244 H 0 **** 0.1268
33084 H88 51.2571 70.0371 145.96 H 0 **** 0.41
33085 H89 54.4605 68.8156 146.409 H 0 **** 0.053
33086 H90 55.9437 69.6401 146.89 H 0 **** 0.053
33087 H91 55.288 69.8724 145.245 H 0 **** 0.053
33088 H92 50.1535 77.1176 149.154 H 0 **** 0.41
33089 H93 46.6061 81.826 150.252 H 0 **** 0.053
33090 H94 44.8603 83.1077 151.478 H 0 **** 0.053
33091 H95 46.2538 84.1668 151.163 H 0 **** 0.053
33092 H96 45.9986 83.4686 152.793 H 0 **** 0.053
33093 H97 55.005 84.7612 152.093 H 0 **** 0.41
33094 H98 60.7119 78.6887 151.029 H 0 **** 0.41
33095 H99 49.1728 85.3106 153.561 H 0 **** 0.41
33096 H100 55.647 80.116 152.261 H 0 **** 0.053
33097 H101 58.7463 77.8317 151.748 H 0 **** 0.053
33098 H102 46.471 81.1745 151.884 H 0 **** 0.053
33099 C1 67.5694 44.5081 119.849 C.ar 0 **** 0.042
33100 C2 68.0919 43.4187 119.177 C.ar 0 **** -0.1268
33101 C3 69.445 43.1299 119.243 C.ar 0 **** 0
33102 C4 70.3147 43.9292 119.987 C.ar 0 **** 0
33103 C5 69.7741 45.0205 120.673 C.ar 0 **** -0.1268
33104 C6 68.4229 45.3253 120.603 C.ar 0 **** 0
33105 C7 71.6476 43.3637 119.844 C.ar 0 **** 0
33106 C8 71.5452 42.2424 119.04 C.ar 0 **** 0
33107 C9 70.1512 41.9875 118.579 C.3 0 **** -0.106
33108 C10 72.6769 41.4887 118.748 C.ar 0 **** 0
33109 C11 73.9373 41.8529 119.267 C.ar 0 **** 0
33110 C12 73.9834 43.0185 120.08 C.ar 0 **** 0
33111 C13 72.847 43.7846 120.362 C.ar 0 **** 0
33112 C14 72.9501 45.0074 121.23 C.3 0 **** -0.106
33113 C15 74.3114 45.6828 121.062 C.3 0 **** -0.106
33114 C16 75.3652 44.6967 121.487 C.3 0 **** -0.106
33115 C17 75.339 43.4377 120.646 C.ar 0 **** 0
33116 C18 76.4721 42.7207 120.433 C.ar 0 **** 0
33117 C19 76.4425 41.5808 119.679 C.ar 0 **** 0
33118 C20 75.1157 41.0774 118.986 C.ar 0 **** 0
33119 C21 74.9546 39.9453 118.09 C.ar 0 **** 0
33120 C22 73.661 39.6433 117.652 C.ar 0 **** 0
33121 C23 72.5578 40.3665 117.945 C.ar 0 **** 0.042
33122 C24 77.7223 40.7791 119.492 C.3 0 **** -0.106
33123 C25 78.9328 41.1829 120.384 C.ar 0 **** 0
33124 C26 78.9113 42.3561 121.097 C.ar 0 **** 0
33125 C27 77.7338 43.2752 121.088 C.3 0 **** -0.106
33126 C28 80.0157 42.7439 121.853 C.ar 0 **** 0.042
33127 C29 81.1718 41.9845 121.907 C.ar 0 **** 0
33128 C30 81.1706 40.798 121.19 C.ar 0 **** 0
33129 C31 80.076 40.3897 120.432 C.ar 0 **** 0
33130 C32 82.3929 39.8657 121.179 C.ar 0 **** 0
33131 C33 83.571 40.3681 122.019 C.3 0 **** -0.106
33132 C34 83.6446 41.8924 122.077 C.3 0 **** -0.106
33133 C35 82.3648 42.4116 122.728 C.3 0 **** -0.106
33134 C36 80.1817 39.0747 119.687 C.ar 0 **** -0.1268
33135 C37 81.323 38.34 119.756 C.ar 0 **** 0.0265
33136 C38 82.3962 38.7098 120.469 C.ar 0 **** -0.1268
33137 C39 73.5093 38.4549 116.777 C.3 0 **** -0.106
33138 C40 74.9549 38.087 116.693 C.ar 0 **** 0
33139 C41 75.7811 38.9294 117.439 C.ar 0 **** 0
33140 C42 77.1618 38.6538 117.354 C.ar 0 **** -0.1268
33141 C43 77.6614 37.5704 116.602 C.ar 0 **** 0
33142 C44 76.792 36.7283 115.876 C.ar 0 **** 0
33143 C45 75.4169 37.0079 115.922 C.ar 0 **** 0
33144 C46 74.533 36.1976 115.177 C.ar 0 **** -0.1268
33145 C47 74.9693 35.1324 114.404 C.ar 0 **** 0
33146 C48 76.3278 34.8766 114.369 C.ar 0 **** -0.1268
33147 C49 77.2569 35.6484 115.087 C.ar 0 **** 0
33148 C50 78.6398 35.3965 115.043 C.ar 0 **** 0.042
33149 C51 79.5162 36.1968 115.749 C.ar 0 **** -0.1268
33150 C52 79.0476 37.2668 116.507 C.ar 0 **** -0.1268
33151 O53 66.227 44.7972 119.789 O.3 0 **** -0.452
33152 C54 67.8634 46.5177 121.364 C.3 0 **** -0.159
33153 O55 71.3645 39.9912 117.453 O.3 0 **** -0.452
33154 C56 73.9017 34.351 113.646 C.3 0 **** -0.106
33155 C57 74.4528 33.0931 112.966 C.3 0 **** -0.159
33156 O58 81.3731 37.1858 119.071 O.3 0 **** -0.4365
33157 O59 80.0244 43.9028 122.58 O.3 0 **** -0.452
33158 O60 79.209 34.4016 114.335 O.3 0 **** -0.452
33159 H61 67.4457 42.7429 118.571 H 0 **** 0.1268
33160 H62 70.3659 45.6924 121.31 H 0 **** 0.1268
33161 H63 70.0302 42.0527 117.482 H 0 **** 0.053
33162 H64 69.7352 41.0279 118.937 H 0 **** 0.053
33163 H65 72.1995 45.7484 120.971 H 0 **** 0.053
33164 H66 72.818 44.7398 122.302 H 0 **** 0.053
33165 H67 74.4553 46.0126 120.005 H 0 **** 0.053
33166 H68 74.3646 46.621 121.69 H 0 **** 0.053
33167 H69 76.3419 45.1923 121.425 H 0 **** 0.053
33168 H70 75.2043 44.4411 122.549 H 0 **** 0.053
33169 H71 77.4941 39.7128 119.701 H 0 **** 0.053
33170 H72 77.4793 43.5052 122.128 H 0 **** 0.053
33171 H73 83.4694 39.9653 123.048 H 0 **** 0.053
33172 H74 84.4888 39.9359 121.597 H 0 **** 0.053
33173 H75 84.5211 42.203 122.659 H 0 **** 0.053
33174 H76 83.7638 42.3092 121.067 H 0 **** 0.053
33175 H77 82.2656 42.0056 123.744 H 0 **** 0.053
33176 H78 82.3953 43.492 122.814 H 0 **** 0.053
33177 H79 79.3277 38.7484 119.125 H 0 **** 0.1268
33178 H80 83.2869 38.1028 120.513 H 0 **** 0.1268
33179 H81 72.9232 37.6453 117.24 H 0 **** 0.053
33180 H82 73.1082 38.6963 115.779 H 0 **** 0.053
33181 H83 77.9415 39.2395 117.819 H 0 **** 0.1268
33182 H84 73.4482 36.4091 115.202 H 0 **** 0.1268
33183 H85 76.6754 34.0465 113.759 H 0 **** 0.1268
33184 H86 80.6043 36.0209 115.727 H 0 **** 0.1268
33185 H87 79.7744 37.9361 117.048 H 0 **** 0.1268
33186 H88 65.8105 44.1461 119.24 H 0 **** 0.41
33187 H89 67.0263 46.9709 120.82 H 0 **** 0.053
33188 H90 68.6168 47.305 121.506 H 0 **** 0.053
33189 H91 67.4939 46.2065 122.354 H 0 **** 0.053
33190 H92 71.4552 39.2137 116.919 H 0 **** 0.41
33191 H93 73.1048 34.0533 114.335 H 0 **** 0.053
33192 H94 73.6535 32.5423 112.432 H 0 **** 0.053
33193 H95 74.8978 32.3931 113.698 H 0 **** 0.053
33194 H96 75.2259 33.3395 112.214 H 0 **** 0.053
33195 H97 80.5351 36.9784 118.689 H 0 **** 0.41
33196 H98 79.2053 44.3591 122.475 H 0 **** 0.41
33197 H99 78.534 33.9098 113.885 H 0 **** 0.41
33198 H100 78.0471 40.9491 118.445 H 0 **** 0.053
33199 H101 78.0006 44.2025 120.568 H 0 **** 0.053
33200 H102 73.4486 34.9943 112.883 H 0 **** 0.053
33201 C 13.8768 30.2405 176.004 C.3 0 **** 0.054
33202 C 14.8343 29.5763 174.973 C.3 0 **** -0.106
33203 C 16.3068 30.0092 175.217 C.3 0 **** -0.053
33204 C 16.3196 31.5127 175.585 C.3 0 **** -0.053
33205 C 15.4352 31.7628 176.843 C.3 0 **** 0.054
33206 O 14.5889 30.6654 177.155 O.3 0 **** -0.32
33207 C 15.8559 32.3832 174.38 C.3 0 **** -0.053
33208 C 16.3556 31.8184 172.995 C.3 0 **** 0.107
33209 C 17.576 30.9274 173.192 C.3 0 **** -0.106
33210 C 17.249 29.6814 174.032 C.3 0 **** -0.106
33211 O 16.7194 32.8263 172.046 O.3 0 **** -0.32
33212 C 15.779 33.889 172.059 C.3 0 **** 0.107
33213 C 16.0623 34.7375 173.327 C.3 0 **** -0.053
33214 C 16.3039 33.8459 174.572 C.3 0 **** -0.106
33215 C 15.0431 35.8077 173.624 C.2 0 **** 0
33216 C 13.6046 35.4737 173.255 C.3 0 **** 0
33217 C 13.4216 34.6201 172.001 C.3 0 **** 0
33218 C 14.3415 33.4137 171.859 C.3 0 **** -0.053
33219 C 11.979 34.2915 171.671 C.3 0 **** 0
33220 C 11.1402 35.5623 171.59 C.3 0 **** 0
33221 C 11.2988 36.3549 172.941 C.3 0 **** 0.16
33222 C 12.7367 36.7157 173.243 C.3 0 **** 0
33223 C 12.8981 37.6398 174.481 C.3 0 **** -0.106
33224 C 14.3307 38.1422 174.384 C.3 0 **** -0.106
33225 C 15.3376 37.0226 174.145 C.2 0 **** -0.1268
33226 O 10.3751 37.4184 173.263 O.3 0 **** -0.32
33227 C 9.44418 37.6531 172.228 C.3 0 **** 0.16
33228 C 8.72712 36.393 171.639 C.3 0 **** 0
33229 C 9.65825 35.1984 171.311 C.3 0 **** 0
33230 C 14.0873 32.7534 170.528 C.2 0 **** 0
33231 C 12.7188 32.1362 170.462 C.3 0 **** -0.053
33232 C 11.7848 33.3802 170.447 C.3 0 **** 0
33233 C 12.384 31.3057 169.243 C.2 0 **** 0
33234 C 13.1704 31.4425 168.143 C.2 0 **** 0
33235 C 14.4615 32.2476 168.122 C.3 0 **** -0.106
33236 C 14.8858 32.8112 169.469 C.2 0 **** -0.1268
33237 C 12.9145 30.6224 166.9 C.3 0 **** -0.106
33238 C 11.4158 30.4179 166.732 C.3 0 **** -0.106
33239 C 10.8225 29.9707 168.057 C.2 0 **** 0
33240 C 11.3379 30.4188 169.247 C.2 0 **** 0
33241 C 10.6811 29.9964 170.548 C.3 0 **** -0.106
33242 C 9.76856 28.7863 170.41 C.3 0 **** -0.053
33243 C 8.7931 29.0125 169.243 C.3 0 **** -0.106
33244 C 9.5788 29.1169 167.931 C.3 0 **** -0.106
33245 C 9.54788 34.4376 169.983 C.3 0 **** 0.147
33246 C 10.2913 33.1164 170.113 C.3 0 **** -0.053
33247 C 7.66995 36.6944 170.571 C.3 0 **** 0
33248 C 6.96971 35.4831 169.942 C.3 0 **** 0.147
33249 S 7.87823 34.0674 169.37 S.3 0 **** -0.294
33250 C 5.85165 35.817 168.993 C.3 0 **** -0.053
33251 C 4.85872 36.7454 169.705 C.3 0 **** 0
33252 C 5.55897 38.0477 170.253 C.3 0 **** 0
33253 C 6.6659 37.6632 171.256 C.3 0 **** 0
33254 C 4.51192 38.9164 170.935 C.3 0 **** 0
33255 C 3.43308 39.2844 169.936 C.3 0 **** 0
33256 C 2.7126 38.0251 169.295 C.3 0 **** 0
33257 C 3.79388 37.1037 168.621 C.3 0 **** -0.053
33258 C 1.73418 38.5561 168.21 C.3 0 **** 0
33259 C 0.6284 39.2899 168.937 C.3 0 **** 0.16
33260 C 1.14595 40.427 169.823 C.3 0 **** 0
33261 C 2.52784 40.3882 170.408 C.3 0 **** 0
33262 C 7.33603 38.8727 171.961 C.3 0 **** 0
33263 C 8.41492 38.473 172.963 C.3 0 **** -0.053
33264 C 5.01473 40.0373 171.871 C.3 0 **** 0
33265 C 6.50003 40.1551 172.221 C.3 0 **** 0
33266 C 2.81935 41.1904 171.677 C.3 0 **** 0
33267 C 4.33698 41.4094 171.821 C.3 0 **** 0
33268 C 0.284844 41.6633 170.084 C.3 0 **** 0
33269 C 0.683607 42.3885 171.408 C.3 0 **** 0
33270 C 2.19744 42.6078 171.585 C.3 0 **** 0
33271 O -0.362426 39.6426 167.996 O.3 0 **** -0.32
33272 C -1.17699 38.4716 167.958 C.3 0 **** 0.107
33273 C -0.303749 37.2122 167.652 C.3 0 **** -0.053
33274 C 1.07648 37.6354 167.154 C.3 0 **** 0.107
33275 C -1.00108 36.306 166.627 C.3 0 **** -0.106
33276 C -2.51225 36.2488 166.917 C.3 0 **** -0.106
33277 C -3.17207 37.6039 166.6 C.3 0 **** 0.134
33278 C -2.22423 38.7928 166.913 C.3 0 **** -0.053
33279 C -3.00016 40.0703 167.319 C.3 0 **** -0.106
33280 C -4.30289 40.1543 166.534 C.3 0 **** -0.106
33281 C -5.19653 38.9077 166.814 C.3 0 **** 0.081
33282 N -4.45548 37.7295 167.261 N.3 0 **** -0.727
33283 C 6.74748 40.9819 173.511 C.3 0 **** 0.16
33284 C 6.11501 42.3547 173.345 C.3 0 **** 0.16
33285 C 4.63238 42.1717 173.191 C.3 0 **** 0
33286 O 6.3817 43.2604 174.394 O.3 0 **** -0.32
33287 C 7.77851 43.281 174.667 C.3 0 **** 0.107
33288 C 8.22506 41.9011 175.042 C.3 0 **** 0.107
33289 O 8.11307 41.0949 173.881 O.3 0 **** -0.32
33290 C 7.40981 41.3191 176.225 C.3 0 **** -0.106
33291 C 6.86852 42.4382 177.161 C.3 0 **** -0.106
33292 C 7.83991 43.6354 177.172 C.3 0 **** -0.106
33293 C 7.97515 44.2915 175.769 C.3 0 **** -0.106
33294 C 2.47023 43.4261 172.925 C.3 0 **** 0
33295 C 4.01299 43.6044 173.094 C.3 0 **** -0.053
33296 C 0.0241619 43.7775 171.42 C.3 0 **** 0
33297 C 0.383022 44.5889 172.681 C.3 0 **** 0.16
33298 C 1.82966 44.8018 172.896 C.3 0 **** -0.053
33299 C -1.53059 43.5144 171.33 C.3 0 **** 0
33300 C -1.884 42.7306 170.001 C.3 0 **** 0
33301 C -1.23484 41.3433 170.123 C.3 0 **** -0.053
33302 O -0.254161 45.8169 172.813 O.3 0 **** -0.32
33303 C -1.64111 45.6557 172.538 C.3 0 **** 0.16
33304 C -2.05882 44.9383 171.186 C.3 0 **** 0
33305 C -3.40229 42.5826 169.703 C.3 0 **** -0.053
33306 C -4.07945 43.944 169.846 C.3 0 **** -0.053
33307 C -3.58171 44.7919 171.076 C.3 0 **** 0
33308 C -5.53202 43.7733 170.134 C.3 0 **** -0.053
33309 C -6.10842 42.6406 169.326 C.3 0 **** -0.106
33310 C -5.52231 41.305 169.867 C.3 0 **** -0.106
33311 C -4.14445 41.5109 170.53 C.3 0 **** -0.106
33312 C -4.15665 46.1862 170.995 C.3 0 **** 0
33313 C -3.68897 47.1161 172.153 C.3 0 **** 0
33314 C -2.2267 47.0401 172.585 C.3 0 **** 0
33315 C -6.10211 45.1406 169.765 C.3 0 **** 0
33316 C -5.65916 46.1711 170.82 C.3 0 **** 0
33317 C 9.07789 28.4288 171.752 C.3 0 **** -0.053
33318 C 7.95961 29.4095 172.134 C.3 0 **** -0.159
33319 C 8.53848 26.9938 171.736 C.3 0 **** -0.159
33320 O 1.84343 36.5027 166.769 O.3 0 **** -0.57
33321 C -1.52939 48.1922 173.362 C.3 0 **** -0.053
33322 C -2.46009 49.2644 173.937 C.3 0 **** -0.053
33323 C -3.55598 49.6205 172.916 C.3 0 **** 0
33324 C -4.42571 48.4035 172.473 C.3 0 **** 0
33325 C -5.66451 48.603 171.618 C.3 0 **** 0
33326 C -6.30471 49.9595 171.657 C.3 0 **** 0
33327 C -5.69049 51.0098 172.616 C.3 0 **** 0
33328 C -4.46603 50.7005 173.511 C.3 0 **** -0.053
33329 C -6.43807 52.3157 172.848 C.3 0 **** -0.053
33330 C -7.87082 52.446 172.286 C.3 0 **** -0.053
33331 C -8.30222 51.4659 171.152 C.3 0 **** 0
33332 C -7.82547 50.0059 171.369 C.3 0 **** 0
33333 C -8.19004 49.0769 170.146 C.3 0 **** 0
33334 C -7.68885 47.6064 170.408 C.3 0 **** 0
33335 C -6.15645 47.5854 170.582 C.3 0 **** 0
33336 C -9.73742 49.1034 169.935 C.3 0 **** 0
33337 C -10.1839 50.5929 169.689 C.3 0 **** -0.053
33338 C -9.81571 51.5075 170.874 C.3 0 **** -0.053
33339 C -7.63384 45.1716 169.585 C.3 0 **** -0.053
33340 C -8.01142 46.6675 169.177 C.3 0 **** 0
33341 C -10.1207 48.1936 168.68 C.3 0 **** 0.02
33342 C -9.54712 46.7399 168.824 C.3 0 **** 0
33343 C -9.91404 45.6898 167.749 C.3 0 **** -0.106
33344 C -10.837 46.3066 166.736 C.3 0 **** -0.106
33345 C -11.9889 47.016 167.439 C.3 0 **** -0.086
33346 C -11.6158 48.0923 168.391 C.2 0 **** 0.379
33347 O -12.4666 48.857 168.812 O.2 0 **** -0.419
33348 H 13.1155 29.5278 176.349 H 0 **** 0.053
33349 H 13.3314 31.0794 175.545 H 0 **** 0.053
33350 H 14.7764 28.4708 175.014 H 0 **** 0.053
33351 H 14.5233 29.8409 173.946 H 0 **** 0.053
33352 H 16.6518 29.4565 176.106 H 0 **** 0.053
33353 H 17.365 31.8018 175.799 H 0 **** 0.053
33354 H 14.8406 32.6866 176.735 H 0 **** 0.053
33355 H 16.0688 31.9059 177.725 H 0 **** 0.053
33356 H 14.7524 32.3737 174.402 H 0 **** 0.053
33357 H 15.5653 31.1841 172.553 H 0 **** 0.053
33358 H 18.3589 31.5366 173.682 H 0 **** 0.053
33359 H 17.9741 30.6497 172.204 H 0 **** 0.053
33360 H 18.1836 29.2377 174.402 H 0 **** 0.053
33361 H 16.781 28.9259 173.385 H 0 **** 0.053
33362 H 16.0377 34.5327 171.216 H 0 **** 0.053
33363 H 16.9995 35.2729 173.138 H 0 **** 0.053
33364 H 15.8527 34.2595 175.501 H 0 **** 0.053
33365 H 17.3936 33.8232 174.75 H 0 **** 0.053
33366 H 14.0435 32.6822 172.625 H 0 **** 0.053
33367 H 12.1745 38.477 174.426 H 0 **** 0.053
33368 H 12.6914 37.0917 175.424 H 0 **** 0.053
33369 H 14.6 38.7222 175.27 H 0 **** 0.053
33370 H 14.3879 38.8231 173.515 H 0 **** 0.053
33371 H 16.3526 37.2669 174.442 H 0 **** 0.1268
33372 H 12.5373 31.555 171.398 H 0 **** 0.053
33373 H 14.3817 33.091 167.373 H 0 **** 0.053
33374 H 15.2945 31.5851 167.752 H 0 **** 0.053
33375 H 15.8608 33.2883 169.504 H 0 **** 0.1268
33376 H 13.3637 31.0941 165.999 H 0 **** 0.053
33377 H 13.4169 29.6481 167.037 H 0 **** 0.053
33378 H 11.1993 29.6901 165.925 H 0 **** 0.053
33379 H 10.9381 31.3714 166.436 H 0 **** 0.053
33380 H 11.4701 29.7487 171.274 H 0 **** 0.053
33381 H 10.1113 30.8363 170.991 H 0 **** 0.053
33382 H 10.4136 27.924 170.143 H 0 **** 0.053
33383 H 8.23214 29.9456 169.411 H 0 **** 0.053
33384 H 8.05098 28.2049 169.168 H 0 **** 0.053
33385 H 8.91673 29.5069 167.123 H 0 **** 0.053
33386 H 9.89068 28.0965 167.613 H 0 **** 0.053
33387 H 10.1479 32.5144 169.151 H 0 **** 0.053
33388 H 5.32948 34.9329 168.518 H 0 **** 0.053
33389 H 3.30639 36.117 168.337 H 0 **** 0.053
33390 H 8.95511 39.3418 173.441 H 0 **** 0.053
33391 H -1.66958 38.3589 168.939 H 0 **** 0.053
33392 H -0.190996 36.61 168.577 H 0 **** 0.053
33393 H 0.941409 38.2781 166.295 H 0 **** 0.053
33394 H -0.837489 36.7091 165.604 H 0 **** 0.053
33395 H -0.539219 35.2921 166.639 H 0 **** 0.053
33396 H -2.63338 36.0068 167.985 H 0 **** 0.053
33397 H -3.00678 35.444 166.35 H 0 **** 0.053
33398 H -3.36098 37.6231 165.514 H 0 **** 0.053
33399 H -1.64663 39.0241 165.994 H 0 **** 0.053
33400 H -3.25968 39.9874 168.384 H 0 **** 0.053
33401 H -2.36972 40.9684 167.194 H 0 **** 0.053
33402 H -4.04137 40.2112 165.461 H 0 **** 0.053
33403 H -4.84928 41.0859 166.76 H 0 **** 0.053
33404 H -5.749 38.6411 165.899 H 0 **** 0.053
33405 H -5.96689 39.1522 167.566 H 0 **** 0.053
33406 H -4.30783 37.7673 168.25 H 0 **** 0.353
33407 H 8.28874 43.573 173.75 H 0 **** 0.053
33408 H 9.27311 41.9234 175.329 H 0 **** 0.053
33409 H 6.54647 40.7134 175.877 H 0 **** 0.053
33410 H 8.0222 40.6072 176.818 H 0 **** 0.053
33411 H 6.70216 42.0489 178.186 H 0 **** 0.053
33412 H 5.87586 42.777 176.802 H 0 **** 0.053
33413 H 8.83 43.2576 177.481 H 0 **** 0.053
33414 H 7.53248 44.3878 177.921 H 0 **** 0.053
33415 H 8.9355 44.8339 175.689 H 0 **** 0.053
33416 H 7.17229 45.0545 175.648 H 0 **** 0.053
33417 H 4.20278 44.1943 174.056 H 0 **** 0.053
33418 H 2.09243 45.3833 173.804 H 0 **** 0.053
33419 H -1.55544 40.7484 169.222 H 0 **** 0.053
33420 H -3.43687 42.277 168.666 H 0 **** 0.053
33421 H -3.90164 44.516 168.915 H 0 **** 0.053
33422 H -5.72567 43.5715 171.209 H 0 **** 0.053
33423 H -5.82859 42.7873 168.266 H 0 **** 0.053
33424 H -7.21812 42.5807 169.358 H 0 **** 0.053
33425 H -5.41911 40.5785 169.037 H 0 **** 0.053
33426 H -6.23179 40.8496 170.585 H 0 **** 0.053
33427 H -3.59862 40.5512 170.577 H 0 **** 0.053
33428 H -4.2539 41.861 171.565 H 0 **** 0.053
33429 H 9.85212 28.4764 172.541 H 0 **** 0.053
33430 H 7.57523 29.1911 173.143 H 0 **** 0.053
33431 H 7.11475 29.3338 171.43 H 0 **** 0.053
33432 H 8.30195 30.4568 172.131 H 0 **** 0.053
33433 H 9.33932 26.2689 171.519 H 0 **** 0.053
33434 H 7.7597 26.8739 170.966 H 0 **** 0.053
33435 H 8.09724 26.7247 172.708 H 0 **** 0.053
33436 H 2.68317 36.8494 166.473 H 0 **** 0.41
33437 H -0.623418 47.9084 173.968 H 0 **** 0.053
33438 H -1.88479 50.166 174.287 H 0 **** 0.053
33439 H -3.9237 51.6259 173.848 H 0 **** 0.053
33440 H -5.97505 53.118 173.477 H 0 **** 0.053
33441 H -8.3108 53.4743 172.276 H 0 **** 0.053
33442 H -11.2817 50.6854 169.471 H 0 **** 0.053
33443 H -10.1773 52.5547 170.752 H 0 **** 0.053
33444 H -7.97098 44.4413 168.764 H 0 **** 0.053
33445 H -9.01267 45.2731 167.266 H 0 **** 0.053
33446 H -10.3894 44.8922 168.318 H 0 **** 0.053
33447 H -11.2225 45.5392 166.067 H 0 **** 0.053
33448 H -10.2647 47.0223 166.112 H 0 **** 0.053
33449 H -12.5561 46.3211 168.063 H 0 **** 0.053
33450 H -12.673 47.5513 166.784 H 0 **** 0.053
33451 C 96.8522 68.2 139.242 C.3 0 **** 0.054
33452 C 97.1826 68.4315 140.745 C.3 0 **** -0.106
33453 C 97.9133 67.2023 141.353 C.3 0 **** -0.053
33454 C 97.2638 65.9172 140.785 C.3 0 **** -0.053
33455 C 97.3476 65.9187 139.229 C.3 0 **** 0.054
33456 O 97.6816 67.1903 138.692 O.3 0 **** -0.32
33457 C 95.7932 65.7738 141.277 C.3 0 **** -0.053
33458 C 95.5991 66.2677 142.762 C.3 0 **** 0.107
33459 C 96.9261 66.2401 143.51 C.3 0 **** -0.106
33460 C 97.9503 67.2123 142.902 C.3 0 **** -0.106
33461 O 94.6693 65.4898 143.524 O.3 0 **** -0.32
33462 C 93.5252 65.1737 142.746 C.3 0 **** 0.107
33463 C 93.9341 64.0417 141.766 C.3 0 **** -0.053
33464 C 95.3134 64.3174 141.114 C.3 0 **** -0.106
33465 C 92.9057 63.6968 140.72 C.2 0 **** 0
33466 C 92.0641 64.8584 140.21 C.3 0 **** 0
33467 C 91.7238 65.935 141.24 C.3 0 **** 0
33468 C 92.8644 66.4065 142.133 C.3 0 **** -0.053
33469 C 90.8997 67.0852 140.696 C.3 0 **** 0
33470 C 89.638 66.5698 140.012 C.3 0 **** 0
33471 C 90.0565 65.5328 138.903 C.3 0 **** 0.16
33472 C 90.8426 64.3663 139.46 C.3 0 **** 0
33473 C 91.1205 63.2502 138.417 C.3 0 **** -0.106
33474 C 91.5898 62.069 139.253 C.3 0 **** -0.106
33475 C 92.6729 62.4454 140.258 C.2 0 **** -0.1268
33476 O 89.1005 65.1342 137.896 O.3 0 **** -0.32
33477 C 87.8311 65.7173 138.098 C.3 0 **** 0.16
33478 C 87.8091 67.2583 138.37 C.3 0 **** 0
33479 C 88.8408 67.7582 139.413 C.3 0 **** 0
33480 C 92.3273 67.3876 143.143 C.2 0 **** 0
33481 C 91.8658 68.6624 142.494 C.3 0 **** -0.053
33482 C 90.6037 68.2063 141.707 C.3 0 **** 0
33483 C 91.4459 69.7973 143.402 C.2 0 **** 0
33484 C 91.1747 69.5069 144.701 C.2 0 **** 0
33485 C 91.4326 68.1476 145.335 C.3 0 **** -0.106
33486 C 92.1319 67.1435 144.433 C.2 0 **** -0.1268
33487 C 90.7798 70.5949 145.673 C.3 0 **** -0.106
33488 C 89.946 71.6398 144.946 C.3 0 **** -0.106
33489 C 90.6382 72.0141 143.647 C.2 0 **** 0
33490 C 91.3657 71.0873 142.943 C.2 0 **** 0
33491 C 91.9933 71.4835 141.62 C.3 0 **** -0.106
33492 C 92.0936 72.9881 141.414 C.3 0 **** -0.053
33493 C 90.7263 73.6343 141.695 C.3 0 **** -0.106
33494 C 90.3499 73.4201 143.165 C.3 0 **** -0.106
33495 C 88.4455 68.7374 140.526 C.3 0 **** 0.147
33496 C 89.7107 69.3346 141.124 C.3 0 **** -0.053
33497 C 86.4096 67.8676 138.51 C.3 0 **** 0
33498 C 86.3458 69.3699 138.813 C.3 0 **** 0.147
33499 S 87.3499 70.115 140.075 S.3 0 **** -0.294
33500 C 84.962 69.9589 138.818 C.3 0 **** -0.053
33501 C 84.2726 69.6138 137.491 C.3 0 **** 0
33502 C 84.2365 68.0586 137.233 C.3 0 **** 0
33503 C 85.6747 67.5028 137.189 C.3 0 **** 0
33504 C 83.5331 67.7984 135.909 C.3 0 **** 0
33505 C 82.123 68.3504 135.969 C.3 0 **** 0
33506 C 82.0681 69.9052 136.279 C.3 0 **** 0
33507 C 82.8259 70.1861 137.628 C.3 0 **** -0.053
33508 C 80.5706 70.2919 136.435 C.3 0 **** 0
33509 C 79.9382 70.1609 135.067 C.3 0 **** 0.16
33510 C 80.0908 68.7593 134.468 C.3 0 **** 0
33511 C 81.2424 67.8737 134.847 C.3 0 **** 0
33512 C 85.7667 66.0008 136.809 C.3 0 **** 0
33513 C 87.1971 65.4731 136.753 C.3 0 **** -0.053
33514 C 83.7159 66.4059 135.266 C.3 0 **** 0
33515 C 84.6987 65.394 135.86 C.3 0 **** 0
33516 C 81.6827 66.774 133.881 C.3 0 **** 0
33517 C 82.5056 65.7123 134.634 C.3 0 **** 0
33518 C 79.0356 68.2027 133.512 C.3 0 **** 0
33519 C 79.6143 67.0903 132.581 C.3 0 **** 0
33520 C 80.4537 66.0229 133.307 C.3 0 **** 0
33521 O 78.6209 70.6618 135.137 O.3 0 **** -0.32
33522 C 78.8127 72.0565 134.905 C.3 0 **** 0.107
33523 C 79.8621 72.6351 135.908 C.3 0 **** -0.053
33524 C 80.1138 71.6413 137.04 C.3 0 **** 0.107
33525 C 79.3924 73.988 136.463 C.3 0 **** -0.106
33526 C 78.7323 74.815 135.344 C.3 0 **** -0.106
33527 C 77.3864 74.1881 134.935 C.3 0 **** 0.134
33528 C 77.4206 72.639 135.029 C.3 0 **** -0.053
33529 C 76.4744 71.9676 134.003 C.3 0 **** -0.106
33530 C 75.2257 72.82 133.818 C.3 0 **** -0.106
33531 C 75.6014 74.2438 133.305 C.3 0 **** 0.081
33532 N 76.9667 74.6541 133.628 N.3 0 **** -0.727
33533 C 85.1122 64.2944 134.845 C.3 0 **** 0.16
33534 C 83.8591 63.6024 134.332 C.3 0 **** 0.16
33535 C 83.0304 64.618 133.599 C.3 0 **** 0
33536 O 84.0977 62.4866 133.501 O.3 0 **** -0.32
33537 C 85.0417 61.6196 134.12 C.3 0 **** 0.107
33538 C 86.3136 62.3726 134.362 C.3 0 **** 0.107
33539 O 86.0406 63.349 135.353 O.3 0 **** -0.32
33540 C 86.8752 63.0119 133.066 C.3 0 **** -0.106
33541 C 86.4631 62.2087 131.799 C.3 0 **** -0.106
33542 C 86.3302 60.7112 132.141 C.3 0 **** -0.106
33543 C 85.21 60.4477 133.186 C.3 0 **** -0.106
33544 C 80.9155 64.904 132.27 C.3 0 **** 0
33545 C 81.7904 63.8548 133.028 C.3 0 **** -0.053
33546 C 78.4403 66.3586 131.91 C.3 0 **** 0
33547 C 78.9094 65.2154 130.987 C.3 0 **** 0.16
33548 C 79.7363 64.1819 131.645 C.3 0 **** -0.053
33549 C 77.6538 67.463 131.099 C.3 0 **** 0
33550 C 77.132 68.5975 132.073 C.3 0 **** 0
33551 C 78.3771 69.3019 132.633 C.3 0 **** -0.053
33552 O 77.9116 64.57 130.267 O.3 0 **** -0.32
33553 C 77.0538 65.5432 129.682 C.3 0 **** 0.16
33554 C 76.4437 66.6666 130.621 C.3 0 **** 0
33555 C 76.1783 69.6395 131.424 C.3 0 **** -0.053
33556 C 75.087 68.9083 130.645 C.3 0 **** -0.053
33557 C 75.5962 67.6654 129.823 C.3 0 **** 0
33558 C 74.5249 69.7928 129.585 C.3 0 **** -0.053
33559 C 74.382 71.2055 130.087 C.3 0 **** -0.106
33560 C 75.8052 71.8053 130.274 C.3 0 **** -0.106
33561 C 76.8576 70.7102 130.544 C.3 0 **** -0.106
33562 C 74.413 66.904 129.274 C.3 0 **** 0
33563 C 74.8158 65.6299 128.474 C.3 0 **** 0
33564 C 75.945 64.7652 129.028 C.3 0 **** 0
33565 C 73.1933 69.1179 129.267 C.3 0 **** 0
33566 C 73.4632 67.8027 128.513 C.3 0 **** 0
33567 C 92.6881 73.3422 140.027 C.3 0 **** -0.053
33568 C 91.7051 73.1041 138.871 C.3 0 **** -0.159
33569 C 93.2025 74.7861 139.993 C.3 0 **** -0.159
33570 O 80.9831 72.1981 138.017 O.3 0 **** -0.57
33571 C 76.1279 63.2763 128.619 C.3 0 **** -0.053
33572 C 75.3111 62.8146 127.408 C.3 0 **** -0.053
33573 C 73.8853 63.3908 127.477 C.3 0 **** 0
33574 C 73.8361 64.9491 127.536 C.3 0 **** 0
33575 C 72.5159 65.6907 127.422 C.3 0 **** 0
33576 C 71.3879 64.9673 126.746 C.3 0 **** 0
33577 C 71.6883 63.5625 126.166 C.3 0 **** 0
33578 C 73.0868 62.9068 126.262 C.3 0 **** -0.053
33579 C 70.6403 62.894 125.287 C.3 0 **** -0.053
33580 C 69.421 63.7304 124.84 C.3 0 **** -0.053
33581 C 69.0818 65.0176 125.654 C.3 0 **** 0
33582 C 70.3262 65.8542 126.051 C.3 0 **** 0
33583 C 69.9442 67.0847 126.963 C.3 0 **** 0
33584 C 71.2343 67.9054 127.343 C.3 0 **** 0
33585 C 72.2218 67.0186 128.128 C.3 0 **** 0
33586 C 68.9231 67.9846 126.197 C.3 0 **** 0
33587 C 67.6627 67.1142 125.833 C.3 0 **** -0.053
33588 C 68.0326 65.9022 124.956 C.3 0 **** -0.053
33589 C 72.1968 69.998 128.485 C.3 0 **** -0.053
33590 C 70.8773 69.1221 128.288 C.3 0 **** 0
33591 C 68.5009 69.2177 127.118 C.3 0 **** 0.02
33592 C 69.754 70.0124 127.629 C.3 0 **** 0
33593 C 69.5268 71.3052 128.448 C.3 0 **** -0.106
33594 C 68.0532 71.5758 128.565 C.3 0 **** -0.106
33595 C 67.3946 71.4956 127.192 C.3 0 **** -0.086
33596 C 67.5382 70.2078 126.468 C.2 0 **** 0.379
33597 O 66.8562 69.9815 125.483 O.2 0 **** -0.419
33598 H 97.0319 69.1112 138.656 H 0 **** 0.053
33599 H 95.7875 67.9515 139.112 H 0 **** 0.053
33600 H 97.814 69.3298 140.892 H 0 **** 0.053
33601 H 96.2535 68.6402 141.307 H 0 **** 0.053
33602 H 98.9481 67.2354 140.975 H 0 **** 0.053
33603 H 97.8175 65.0494 141.189 H 0 **** 0.053
33604 H 96.4104 65.547 138.78 H 0 **** 0.053
33605 H 98.1401 65.2401 138.895 H 0 **** 0.053
33606 H 95.1826 66.397 140.601 H 0 **** 0.053
33607 H 95.2588 67.3195 142.755 H 0 **** 0.053
33608 H 97.3055 65.2011 143.481 H 0 **** 0.053
33609 H 96.7385 66.4703 144.571 H 0 **** 0.053
33610 H 98.9556 66.9502 143.259 H 0 **** 0.053
33611 H 97.7445 68.2271 143.271 H 0 **** 0.053
33612 H 92.809 64.718 143.433 H 0 **** 0.053
33613 H 94.0485 63.1352 142.371 H 0 **** 0.053
33614 H 95.3574 64.0239 140.042 H 0 **** 0.053
33615 H 96.0516 63.6805 141.633 H 0 **** 0.053
33616 H 93.5648 66.9721 141.5 H 0 **** 0.053
33617 H 90.1908 63.0076 137.865 H 0 **** 0.053
33618 H 91.8693 63.5775 137.665 H 0 **** 0.053
33619 H 91.9236 61.2484 138.613 H 0 **** 0.053
33620 H 90.7216 61.7032 139.832 H 0 **** 0.053
33621 H 93.2841 61.6107 140.586 H 0 **** 0.1268
33622 H 92.6444 69.0031 141.77 H 0 **** 0.053
33623 H 90.4623 67.7019 145.707 H 0 **** 0.053
33624 H 92.0757 68.2914 146.249 H 0 **** 0.053
33625 H 92.433 66.2088 144.897 H 0 **** 0.1268
33626 H 90.2383 70.1817 146.551 H 0 **** 0.053
33627 H 91.7106 71.0513 146.055 H 0 **** 0.053
33628 H 89.7742 72.5292 145.584 H 0 **** 0.053
33629 H 88.9485 71.2236 144.707 H 0 **** 0.053
33630 H 93.0094 71.064 141.576 H 0 **** 0.053
33631 H 91.4397 71.034 140.773 H 0 **** 0.053
33632 H 92.8054 73.3714 142.174 H 0 **** 0.053
33633 H 89.9642 73.1709 141.048 H 0 **** 0.053
33634 H 90.7275 74.7092 141.465 H 0 **** 0.053
33635 H 89.2759 73.6751 143.322 H 0 **** 0.053
33636 H 90.9338 74.128 143.796 H 0 **** 0.053
33637 H 89.4173 70.1199 141.902 H 0 **** 0.053
33638 H 84.8995 71.0654 139.045 H 0 **** 0.053
33639 H 82.9544 71.309 137.747 H 0 **** 0.053
33640 H 87.2806 64.3677 136.537 H 0 **** 0.053
33641 H 79.1682 72.1908 133.869 H 0 **** 0.053
33642 H 80.8141 72.8296 135.372 H 0 **** 0.053
33643 H 79.1643 71.4116 137.503 H 0 **** 0.053
33644 H 78.6562 73.819 137.278 H 0 **** 0.053
33645 H 80.2499 74.5284 136.925 H 0 **** 0.053
33646 H 79.4259 74.8218 134.487 H 0 **** 0.053
33647 H 78.5867 75.8648 135.644 H 0 **** 0.053
33648 H 76.6353 74.5363 135.662 H 0 **** 0.053
33649 H 77.081 72.3483 136.045 H 0 **** 0.053
33650 H 76.9952 71.927 133.035 H 0 **** 0.053
33651 H 76.2414 70.931 134.304 H 0 **** 0.053
33652 H 74.7174 72.8817 134.797 H 0 **** 0.053
33653 H 74.5063 72.336 133.135 H 0 **** 0.053
33654 H 74.9078 74.9825 133.738 H 0 **** 0.053
33655 H 75.4584 74.3055 132.212 H 0 **** 0.053
33656 H 77.6051 74.3071 132.94 H 0 **** 0.353
33657 H 84.6292 61.3184 135.083 H 0 **** 0.053
33658 H 87.0657 61.6972 134.762 H 0 **** 0.053
33659 H 86.531 64.0599 132.937 H 0 **** 0.053
33660 H 87.9821 63.0908 133.109 H 0 **** 0.053
33661 H 87.1906 62.3679 130.977 H 0 **** 0.053
33662 H 85.4916 62.5839 131.419 H 0 **** 0.053
33663 H 87.2936 60.3802 132.566 H 0 **** 0.053
33664 H 86.1552 60.1109 131.229 H 0 **** 0.053
33665 H 85.3972 59.4966 133.719 H 0 **** 0.053
33666 H 84.2394 60.3239 132.653 H 0 **** 0.053
33667 H 82.1171 63.053 132.28 H 0 **** 0.053
33668 H 80.0782 63.3583 130.984 H 0 **** 0.053
33669 H 78.014 70.167 133.257 H 0 **** 0.053
33670 H 75.7317 70.1465 132.269 H 0 **** 0.053
33671 H 74.3145 68.5759 131.366 H 0 **** 0.053
33672 H 75.1576 69.8071 128.672 H 0 **** 0.053
33673 H 73.8391 71.183 131.051 H 0 **** 0.053
33674 H 73.8022 71.87 129.41 H 0 **** 0.053
33675 H 75.8012 72.5194 131.122 H 0 **** 0.053
33676 H 76.0822 72.3954 129.379 H 0 **** 0.053
33677 H 77.7521 71.152 131.019 H 0 **** 0.053
33678 H 77.195 70.2494 129.606 H 0 **** 0.053
33679 H 93.5618 72.682 139.867 H 0 **** 0.053
33680 H 92.2001 73.2544 137.898 H 0 **** 0.053
33681 H 90.8571 73.8062 138.927 H 0 **** 0.053
33682 H 91.2919 72.0827 138.877 H 0 **** 0.053
33683 H 93.9531 74.9608 140.78 H 0 **** 0.053
33684 H 92.3797 75.5015 140.148 H 0 **** 0.053
33685 H 93.6729 75.0173 139.025 H 0 **** 0.053
33686 H 81.0893 71.5209 138.682 H 0 **** 0.41
33687 H 77.162 62.8478 128.744 H 0 **** 0.053
33688 H 75.3206 61.694 127.307 H 0 **** 0.053
33689 H 73.0563 61.789 126.147 H 0 **** 0.053
33690 H 70.806 61.8492 124.92 H 0 **** 0.053
33691 H 68.5683 63.1655 124.388 H 0 **** 0.053
33692 H 66.8561 67.7102 125.328 H 0 **** 0.053
33693 H 67.1488 65.3051 124.633 H 0 **** 0.053
33694 H 71.9491 70.9605 129.063 H 0 **** 0.053
33695 H 70.0011 71.2423 129.443 H 0 **** 0.053
33696 H 70.049 72.0698 127.875 H 0 **** 0.053
33697 H 67.8884 72.5589 129.002 H 0 **** 0.053
33698 H 67.6014 70.8349 129.255 H 0 **** 0.053
33699 H 67.8374 72.2171 126.501 H 0 **** 0.053
33700 H 66.3131 71.6117 127.189 H 0 **** 0.053
33701 C 59.9631 25.3194 203.6 C.3 0 **** 0.054
33702 C 58.961 25.2694 204.789 C.3 0 **** -0.106
33703 C 59.0643 23.9192 205.552 C.3 0 **** -0.053
33704 C 59.2529 22.7857 204.515 C.3 0 **** -0.053
33705 C 60.5244 23.0542 203.655 C.3 0 **** 0.054
33706 O 61.0118 24.3824 203.782 O.3 0 **** -0.32
33707 C 57.9845 22.6299 203.625 C.3 0 **** -0.053
33708 C 56.6478 22.8663 204.427 C.3 0 **** 0.107
33709 C 56.8741 22.6447 205.917 C.3 0 **** -0.106
33710 C 57.8712 23.6575 206.505 C.3 0 **** -0.106
33711 O 55.5672 22.0131 204.034 O.3 0 **** -0.32
33712 C 55.5129 21.8933 202.621 C.3 0 **** 0.107
33713 C 56.6547 20.9313 202.197 C.3 0 **** -0.053
33714 C 57.9785 21.2492 202.939 C.3 0 **** -0.106
33715 C 56.8854 20.8244 200.711 C.2 0 **** 0
33716 C 56.6443 22.096 199.91 C.3 0 **** 0
33717 C 55.5114 22.9915 200.409 C.3 0 **** 0
33718 C 55.4557 23.2444 201.911 C.3 0 **** -0.053
33719 C 55.3085 24.2568 199.6 C.3 0 **** 0
33720 C 55.1315 23.9299 198.121 C.3 0 **** 0
33721 C 56.3705 23.0844 197.643 C.3 0 **** 0.16
33722 C 56.54 21.8019 198.427 C.3 0 **** 0
33723 C 57.6499 20.8722 197.864 C.3 0 **** -0.106
33724 C 57.4098 19.5423 198.563 C.3 0 **** -0.106
33725 C 57.2427 19.6856 200.071 C.2 0 **** -0.1268
33726 O 56.6177 22.9111 196.23 O.3 0 **** -0.32
33727 C 55.621 23.5124 195.431 C.3 0 **** 0.16
33728 C 55.2254 24.9817 195.798 C.3 0 **** 0
33729 C 54.9842 25.241 197.305 C.3 0 **** 0
33730 C 54.2289 24.0592 202.229 C.2 0 **** 0
33731 C 54.3166 25.4482 201.662 C.3 0 **** -0.053
33732 C 54.2128 25.1978 200.13 C.3 0 **** 0
33733 C 53.2246 26.4264 202.034 C.2 0 **** 0
33734 C 52.0715 25.9273 202.552 C.2 0 **** 0
33735 C 51.8801 24.4676 202.937 C.3 0 **** -0.106
33736 C 53.1237 23.6034 202.808 C.2 0 **** -0.1268
33737 C 50.9497 26.8472 202.975 C.3 0 **** -0.106
33738 C 50.8969 28.0419 202.033 C.3 0 **** -0.106
33739 C 52.2977 28.6029 201.861 C.2 0 **** 0
33740 C 53.3949 27.7789 201.884 C.2 0 **** 0
33741 C 54.7727 28.3688 201.649 C.3 0 **** -0.106
33742 C 54.8315 29.8796 201.823 C.3 0 **** -0.053
33743 C 53.7059 30.5322 201.002 C.3 0 **** -0.106
33744 C 52.3462 30.0835 201.549 C.3 0 **** -0.106
33745 C 53.7652 26.0302 197.797 C.3 0 **** 0.147
33746 C 54.0026 26.4523 199.24 C.3 0 **** -0.053
33747 C 54.1966 25.6277 194.863 C.3 0 **** 0
33748 C 53.7628 27.057 195.207 C.3 0 **** 0.147
33749 S 53.2885 27.5106 196.857 S.3 0 **** -0.294
33750 C 52.8422 27.6935 194.206 C.3 0 **** -0.053
33751 C 53.4976 27.6205 192.821 C.3 0 **** 0
33752 C 53.8483 26.1379 192.413 C.3 0 **** 0
33753 C 54.8219 25.5299 193.443 C.3 0 **** 0
33754 C 54.4874 26.148 191.031 C.3 0 **** 0
33755 C 53.5176 26.747 190.031 C.3 0 **** 0
33756 C 53.0725 28.226 190.397 C.3 0 **** 0
33757 C 52.4454 28.23 191.84 C.3 0 **** -0.053
33758 C 51.993 28.6504 189.361 C.3 0 **** 0
33759 C 52.695 28.7915 188.028 C.3 0 **** 0.16
33760 C 53.4063 27.5077 187.59 C.3 0 **** 0
33761 C 53.9144 26.5184 188.599 C.3 0 **** 0
33762 C 55.3411 24.1148 193.073 C.3 0 **** 0
33763 C 56.3154 23.5362 194.093 C.3 0 **** -0.053
33764 C 55.2551 24.8811 190.591 C.3 0 **** 0
33765 C 55.4989 23.7345 191.576 C.3 0 **** 0
33766 C 55.0594 25.5821 188.212 C.3 0 **** 0
33767 C 55.0861 24.3672 189.159 C.3 0 **** 0
33768 C 53.5764 27.1794 186.106 C.3 0 **** 0
33769 C 54.7815 26.2193 185.849 C.3 0 **** 0
33770 C 54.8396 25.0025 186.791 C.3 0 **** 0
33771 O 51.7798 29.3344 187.101 O.3 0 **** -0.32
33772 C 51.9263 30.7377 187.316 C.3 0 **** 0.107
33773 C 51.7175 31.0814 188.826 C.3 0 **** -0.053
33774 C 51.0924 29.8944 189.555 C.3 0 **** 0.107
33775 C 50.8479 32.338 188.98 C.3 0 **** -0.106
33776 C 51.2322 33.3781 187.912 C.3 0 **** -0.106
33777 C 50.7994 32.8979 186.514 C.3 0 **** 0.134
33778 C 50.9149 31.356 186.374 C.3 0 **** -0.053
33779 C 51.2153 30.9201 184.918 C.3 0 **** -0.106
33780 C 50.5051 31.851 183.944 C.3 0 **** -0.106
33781 C 50.9817 33.3225 184.141 C.3 0 **** 0.081
33782 N 51.5176 33.6035 185.471 N.3 0 **** -0.727
33783 C 56.6672 22.8103 191.14 C.3 0 **** 0.16
33784 C 56.3802 22.2797 189.744 C.3 0 **** 0.16
33785 C 56.3383 23.4462 188.799 C.3 0 **** 0
33786 O 57.2988 21.3149 189.277 O.3 0 **** -0.32
33787 C 57.4844 20.309 190.267 C.3 0 **** 0.107
33788 C 57.9891 20.9463 191.525 C.3 0 **** 0.107
33789 O 56.9383 21.7469 192.04 O.3 0 **** -0.32
33790 C 59.2792 21.7738 191.289 C.3 0 **** -0.106
33791 C 60.1088 21.2242 190.093 C.3 0 **** -0.106
33792 C 59.9228 19.6983 189.976 C.3 0 **** -0.106
33793 C 58.4472 19.3109 189.675 C.3 0 **** -0.106
33794 C 56.0564 24.0605 186.377 C.3 0 **** 0
33795 C 56.1113 22.854 187.369 C.3 0 **** -0.053
33796 C 54.6722 25.6729 184.416 C.3 0 **** 0
33797 C 55.8047 24.6875 184.072 C.3 0 **** 0.16
33798 C 55.9086 23.5188 184.968 C.3 0 **** -0.053
33799 C 54.7054 26.9383 183.472 C.3 0 **** 0
33800 C 53.4983 27.9094 183.802 C.3 0 **** 0
33801 C 53.7429 28.4453 185.222 C.3 0 **** -0.053
33802 O 55.8274 24.2268 182.763 O.3 0 **** -0.32
33803 C 55.6601 25.3258 181.876 C.3 0 **** 0.16
33804 C 54.4295 26.2969 182.115 C.3 0 **** 0
33805 C 53.3115 29.0937 182.813 C.3 0 **** -0.053
33806 C 53.3358 28.5629 181.381 C.3 0 **** -0.053
33807 C 54.4275 27.4592 181.114 C.3 0 **** 0
33808 C 53.7275 29.6446 180.433 C.3 0 **** -0.053
33809 C 53.0931 30.9536 180.822 C.3 0 **** -0.106
33810 C 53.7503 31.4423 182.145 C.3 0 **** -0.106
33811 C 54.3007 30.2674 182.98 C.3 0 **** -0.106
33812 C 54.2182 26.8624 179.743 C.3 0 **** 0
33813 C 55.2349 25.7324 179.402 C.3 0 **** 0
33814 C 55.5727 24.7258 180.5 C.3 0 **** 0
33815 C 53.2375 29.1004 179.094 C.3 0 **** 0
33816 C 54.1365 27.925 178.669 C.3 0 **** 0
33817 C 56.2444 30.4409 201.518 C.3 0 **** -0.053
33818 C 56.5764 30.4555 200.018 C.3 0 **** -0.159
33819 C 56.4278 31.8422 202.112 C.3 0 **** -0.159
33820 O 50.7997 30.2301 190.904 O.3 0 **** -0.57
33821 C 56.1776 23.3285 180.185 C.3 0 **** -0.053
33822 C 56.6763 23.123 178.751 C.3 0 **** -0.053
33823 C 55.6869 23.7455 177.75 C.3 0 **** 0
33824 C 55.4406 25.2704 177.971 C.3 0 **** 0
33825 C 54.6456 26.0847 176.965 C.3 0 **** 0
33826 C 54.5629 25.5439 175.568 C.3 0 **** 0
33827 C 55.3577 24.2509 175.256 C.3 0 **** 0
33828 C 56.2054 23.52 176.325 C.3 0 **** -0.053
33829 C 55.4766 23.7948 173.809 C.3 0 **** -0.053
33830 C 54.9928 24.7548 172.7 C.3 0 **** -0.053
33831 C 54.0072 25.8955 173.102 C.3 0 **** 0
33832 C 54.3644 26.589 174.442 C.3 0 **** 0
33833 C 53.2818 27.6589 174.861 C.3 0 **** 0
33834 C 53.6825 28.3377 176.225 C.3 0 **** 0
33835 C 53.766 27.281 177.345 C.3 0 **** 0
33836 C 53.1611 28.7267 173.727 C.3 0 **** 0
33837 C 52.7713 27.9946 172.389 C.3 0 **** -0.053
33838 C 53.817 26.9376 171.985 C.3 0 **** -0.053
33839 C 53.1465 30.1503 177.967 C.3 0 **** -0.053
33840 C 52.5906 29.3869 176.681 C.3 0 **** 0
33841 C 52.0463 29.7994 174.12 C.3 0 **** 0.02
33842 C 52.3239 30.4314 175.529 C.3 0 **** 0
33843 C 51.4021 31.5712 176.024 C.3 0 **** -0.106
33844 C 50.3812 31.8882 174.967 C.3 0 **** -0.106
33845 C 51.0642 32.0802 173.618 C.3 0 **** -0.086
33846 C 51.8602 30.9328 173.115 C.2 0 **** 0.379
33847 O 52.2408 30.9141 171.957 O.2 0 **** -0.419
33848 H 60.4334 26.3092 203.524 H 0 **** 0.053
33849 H 59.4422 25.1489 202.645 H 0 **** 0.053
33850 H 59.1336 26.0969 205.505 H 0 **** 0.053
33851 H 57.9298 25.4215 204.42 H 0 **** 0.053
33852 H 59.989 23.9677 206.15 H 0 **** 0.053
33853 H 59.3693 21.8351 205.068 H 0 **** 0.053
33854 H 60.345 22.8121 202.593 H 0 **** 0.053
33855 H 61.3445 22.4066 203.984 H 0 **** 0.053
33856 H 58.0739 23.39 202.83 H 0 **** 0.053
33857 H 56.3307 23.9184 204.305 H 0 **** 0.053
33858 H 57.2424 21.6098 206.05 H 0 **** 0.053
33859 H 55.9026 22.6955 206.434 H 0 **** 0.053
33860 H 58.2332 23.2891 207.474 H 0 **** 0.053
33861 H 57.3456 24.6013 206.708 H 0 **** 0.053
33862 H 54.5866 21.3599 202.398 H 0 **** 0.053
33863 H 56.3488 19.9288 202.517 H 0 **** 0.053
33864 H 58.8779 21.145 202.293 H 0 **** 0.053
33865 H 58.0919 20.4968 203.739 H 0 **** 0.053
33866 H 56.3184 23.8773 202.169 H 0 **** 0.053
33867 H 57.5412 20.7742 196.766 H 0 **** 0.053
33868 H 58.6607 21.2887 198.056 H 0 **** 0.053
33869 H 58.2047 18.8305 198.327 H 0 **** 0.053
33870 H 56.4653 19.1235 198.169 H 0 **** 0.053
33871 H 57.4486 18.7777 200.63 H 0 **** 0.1268
33872 H 55.3233 25.8719 201.895 H 0 **** 0.053
33873 H 51.0439 24.0113 202.328 H 0 **** 0.053
33874 H 51.5401 24.4191 204.01 H 0 **** 0.053
33875 H 53.0458 22.5888 203.187 H 0 **** 0.1268
33876 H 49.9748 26.3143 203.01 H 0 **** 0.053
33877 H 51.1689 27.1852 204.003 H 0 **** 0.053
33878 H 50.1946 28.8139 202.406 H 0 **** 0.053
33879 H 50.5201 27.723 201.043 H 0 **** 0.053
33880 H 55.4738 27.9149 202.365 H 0 **** 0.053
33881 H 55.148 28.1012 200.642 H 0 **** 0.053
33882 H 54.6282 30.0901 202.893 H 0 **** 0.053
33883 H 53.7979 30.2261 199.948 H 0 **** 0.053
33884 H 53.77 31.6295 201.021 H 0 **** 0.053
33885 H 51.5393 30.3589 200.831 H 0 **** 0.053
33886 H 52.131 30.642 202.488 H 0 **** 0.053
33887 H 53.1271 27.1034 199.584 H 0 **** 0.053
33888 H 52.5086 28.7453 194.448 H 0 **** 0.053
33889 H 52.3098 29.3078 192.174 H 0 **** 0.053
33890 H 56.6575 22.4831 193.871 H 0 **** 0.053
33891 H 52.9409 31.0335 187 H 0 **** 0.053
33892 H 52.698 31.3204 189.287 H 0 **** 0.053
33893 H 50.1736 29.6345 189.048 H 0 **** 0.053
33894 H 49.7764 32.0657 188.86 H 0 **** 0.053
33895 H 50.9498 32.7476 190.011 H 0 **** 0.053
33896 H 52.3272 33.5006 187.951 H 0 **** 0.053
33897 H 50.7938 34.3653 188.126 H 0 **** 0.053
33898 H 49.7322 33.1499 186.404 H 0 **** 0.053
33899 H 49.9426 30.91 186.668 H 0 **** 0.053
33900 H 52.2971 31.0241 184.748 H 0 **** 0.053
33901 H 50.9503 29.8594 184.764 H 0 **** 0.053
33902 H 49.4197 31.766 184.134 H 0 **** 0.053
33903 H 50.6539 31.5287 182.899 H 0 **** 0.053
33904 H 50.1383 34.0073 183.957 H 0 **** 0.053
33905 H 51.7448 33.5806 183.386 H 0 **** 0.053
33906 H 52.4848 33.352 185.517 H 0 **** 0.353
33907 H 56.5104 19.865 190.471 H 0 **** 0.053
33908 H 58.2088 20.1762 192.26 H 0 **** 0.053
33909 H 59.0563 22.8437 191.091 H 0 **** 0.053
33910 H 59.9132 21.7906 192.201 H 0 **** 0.053
33911 H 61.1802 21.4889 190.202 H 0 **** 0.053
33912 H 59.7728 21.7064 189.153 H 0 **** 0.053
33913 H 60.214 19.2523 190.942 H 0 **** 0.053
33914 H 60.5962 19.2752 189.208 H 0 **** 0.053
33915 H 58.2479 18.2738 190.002 H 0 **** 0.053
33916 H 58.286 19.3289 188.573 H 0 **** 0.053
33917 H 56.9856 22.1805 187.066 H 0 **** 0.053
33918 H 56.7223 22.805 184.727 H 0 **** 0.053
33919 H 52.938 29.2053 185.431 H 0 **** 0.053
33920 H 52.3214 29.4672 183.036 H 0 **** 0.053
33921 H 52.3347 28.1478 181.152 H 0 **** 0.053
33922 H 54.8283 29.7873 180.392 H 0 **** 0.053
33923 H 52.008 30.7899 180.964 H 0 **** 0.053
33924 H 53.1976 31.7531 180.057 H 0 **** 0.053
33925 H 53.005 31.9973 182.75 H 0 **** 0.053
33926 H 54.5567 32.1653 181.916 H 0 **** 0.053
33927 H 54.4261 30.5763 184.033 H 0 **** 0.053
33928 H 55.2924 29.9615 182.622 H 0 **** 0.053
33929 H 56.9751 29.7773 202.018 H 0 **** 0.053
33930 H 57.6252 30.7491 199.852 H 0 **** 0.053
33931 H 55.9377 31.1771 199.483 H 0 **** 0.053
33932 H 56.4309 29.47 199.547 H 0 **** 0.053
33933 H 56.2496 31.8408 203.199 H 0 **** 0.053
33934 H 55.7254 32.5583 201.657 H 0 **** 0.053
33935 H 57.4491 32.2158 201.941 H 0 **** 0.053
33936 H 50.4112 29.447 191.289 H 0 **** 0.41
33937 H 56.7542 22.8328 181.016 H 0 **** 0.053
33938 H 56.8833 22.0375 178.538 H 0 **** 0.053
33939 H 56.3999 22.4421 176.071 H 0 **** 0.053
33940 H 55.9815 22.8241 173.571 H 0 **** 0.053
33941 H 54.8884 24.3193 171.675 H 0 **** 0.053
33942 H 52.61 28.7077 171.537 H 0 **** 0.053
33943 H 53.5959 26.4492 171.007 H 0 **** 0.053
33944 H 52.4372 31.0085 178.254 H 0 **** 0.053
33945 H 50.918 31.3134 176.982 H 0 **** 0.053
33946 H 52.087 32.398 176.205 H 0 **** 0.053
33947 H 49.8304 32.787 175.239 H 0 **** 0.053
33948 H 49.6444 31.0611 174.914 H 0 **** 0.053
33949 H 51.798 32.8891 173.661 H 0 **** 0.053
33950 H 50.3936 32.2472 172.778 H 0 **** 0.053
33951 C 50.0361 11.5981 110.419 C.3 0 **** 0.054
33952 C 50.3313 11.8354 108.91 C.3 0 **** -0.106
33953 C 51.7304 12.4809 108.708 C.3 0 **** -0.053
33954 C 51.9478 13.5345 109.821 C.3 0 **** -0.053
33955 C 51.8251 12.8646 111.223 C.3 0 **** 0.054
33956 O 51.2379 11.5722 111.171 O.3 0 **** -0.32
33957 C 50.9501 14.7202 109.666 C.3 0 **** -0.053
33958 C 50.6731 15.0872 108.158 C.3 0 **** 0.107
33959 C 51.8134 14.5993 107.273 C.3 0 **** -0.106
33960 C 51.9391 13.0668 107.29 C.3 0 **** -0.106
33961 O 50.5196 16.4895 107.912 O.3 0 **** -0.32
33962 C 49.73 17.0916 108.926 C.3 0 **** 0.107
33963 C 50.6276 17.2342 110.184 C.3 0 **** -0.053
33964 C 51.4538 15.9493 110.449 C.3 0 **** -0.106
33965 C 49.9133 17.6789 111.435 C.2 0 **** 0
33966 C 48.4814 17.1866 111.591 C.3 0 **** 0
33967 C 47.6774 17.0607 110.298 C.3 0 **** 0
33968 C 48.3826 16.3993 109.12 C.3 0 **** -0.053
33969 C 46.2619 16.5521 110.486 C.3 0 **** 0
33970 C 45.5148 17.4001 111.51 C.3 0 **** 0
33971 C 46.346 17.42 112.847 C.3 0 **** 0.16
33972 C 47.7433 17.9684 112.659 C.3 0 **** 0
33973 C 48.5214 18.1543 113.99 C.3 0 **** -0.106
33974 C 49.7148 19.0155 113.605 C.3 0 **** -0.106
33975 C 50.4472 18.4983 112.372 C.2 0 **** -0.1268
33976 O 45.7263 17.8751 114.07 O.3 0 **** -0.32
33977 C 44.4028 18.3227 113.869 C.3 0 **** 0.16
33978 C 43.4694 17.3824 113.036 C.3 0 **** 0
33979 C 44.0903 16.8267 111.73 C.3 0 **** 0
33980 C 47.4813 16.45 107.913 C.2 0 **** 0
33981 C 46.259 15.594 108.091 C.3 0 **** -0.053
33982 C 45.4627 16.3608 109.185 C.3 0 **** 0
33983 C 45.3422 15.4274 106.899 C.2 0 **** 0
33984 C 45.4659 16.3081 105.872 C.2 0 **** 0
33985 C 46.5801 17.34 105.773 C.3 0 **** -0.106
33986 C 47.6346 17.2495 106.864 C.2 0 **** -0.1268
33987 C 44.6049 16.1838 104.636 C.3 0 **** -0.106
33988 C 43.2247 15.6807 105.033 C.3 0 **** -0.106
33989 C 43.3773 14.487 105.96 C.2 0 **** 0
33990 C 44.4301 14.405 106.836 C.2 0 **** 0
33991 C 44.5161 13.2259 107.787 C.3 0 **** -0.106
33992 C 43.6429 12.0467 107.383 C.3 0 **** -0.053
33993 C 42.2139 12.5419 107.102 C.3 0 **** -0.106
33994 C 42.2292 13.5017 105.907 C.3 0 **** -0.106
33995 C 43.3131 16.8334 110.407 C.3 0 **** 0.147
33996 C 44.0025 15.8927 109.43 C.3 0 **** -0.053
33997 C 42.0211 17.8659 112.903 C.3 0 **** 0
33998 C 41.0828 16.9894 112.064 C.3 0 **** 0.147
33999 S 41.5571 16.3711 110.467 S.3 0 **** -0.294
34000 C 39.6436 17.4253 112.058 C.3 0 **** -0.053
34001 C 39.1597 17.554 113.508 C.3 0 **** 0
34002 C 40.0582 18.5449 114.343 C.3 0 **** 0
34003 C 41.5152 18.0389 114.362 C.3 0 **** 0
34004 C 39.5116 18.6246 115.761 C.3 0 **** 0
34005 C 38.0809 19.1229 115.724 C.3 0 **** 0
34006 C 37.118 18.2082 114.856 C.3 0 **** 0
34007 C 37.6972 18.091 113.399 C.3 0 **** -0.053
34008 C 35.7324 18.9111 114.809 C.3 0 **** 0
34009 C 35.1562 18.8415 116.206 C.3 0 **** 0.16
34010 C 36.0663 19.4768 117.262 C.3 0 **** 0
34011 C 37.554 19.5398 117.069 C.3 0 **** 0
34012 C 42.466 18.8666 115.268 C.3 0 **** 0
34013 C 43.8979 18.3412 115.289 C.3 0 **** -0.053
34014 C 40.4343 19.2175 116.849 C.3 0 **** 0
34015 C 41.894 19.5552 116.536 C.3 0 **** 0
34016 C 38.4579 19.6465 118.297 C.3 0 **** 0
34017 C 39.8431 20.1785 117.884 C.3 0 **** 0
34018 C 35.4725 20.1201 118.516 C.3 0 **** 0
34019 C 36.4962 20.1658 119.694 C.3 0 **** 0
34020 C 37.8945 20.6809 119.306 C.3 0 **** 0
34021 O 33.8304 19.3228 116.164 O.3 0 **** -0.32
34022 C 33.0926 18.1533 115.811 C.3 0 **** 0.107
34023 C 33.6741 17.5169 114.508 C.3 0 **** -0.053
34024 C 34.6185 18.4986 113.817 C.3 0 **** 0.107
34025 C 32.5417 17.0898 113.562 C.3 0 **** -0.106
34026 C 31.3838 16.476 114.371 C.3 0 **** -0.106
34027 C 30.6726 17.5613 115.2 C.3 0 **** 0.134
34028 C 31.6647 18.6452 115.701 C.3 0 **** -0.053
34029 C 31.2175 19.2736 117.044 C.3 0 **** -0.106
34030 C 29.6976 19.3697 117.089 C.3 0 **** -0.106
34031 C 29.0512 17.9573 116.95 C.3 0 **** 0.081
34032 N 29.9012 16.9755 116.278 N.3 0 **** -0.727
34033 C 42.7713 19.6591 117.813 C.3 0 **** 0.16
34034 C 42.1599 20.6916 118.747 C.3 0 **** 0.16
34035 C 40.8012 20.203 119.16 C.3 0 **** 0
34036 O 42.9331 20.9857 119.891 O.3 0 **** -0.32
34037 C 44.2765 21.2568 119.506 C.3 0 **** 0.107
34038 C 44.8322 20.0631 118.792 C.3 0 **** 0.107
34039 O 44.1374 19.9496 117.561 O.3 0 **** -0.32
34040 C 44.7201 18.7672 119.636 C.3 0 **** -0.106
34041 C 44.7416 19.0672 121.162 C.3 0 **** -0.106
34042 C 45.6014 20.3153 121.445 C.3 0 **** -0.106
34043 C 45.0171 21.5913 120.776 C.3 0 **** -0.106
34044 C 38.8188 20.76 120.601 C.3 0 **** 0
34045 C 40.2371 21.2537 120.171 C.3 0 **** -0.053
34046 C 35.9519 21.1152 120.774 C.3 0 **** 0
34047 C 36.9107 21.2521 121.974 C.3 0 **** 0.16
34048 C 38.2702 21.7244 121.637 C.3 0 **** -0.053
34049 C 34.5621 20.5092 121.217 C.3 0 **** 0
34050 C 33.5742 20.4303 119.982 C.3 0 **** 0
34051 C 34.1773 19.4128 119.001 C.3 0 **** -0.053
34052 O 36.4448 22.0151 123.039 O.3 0 **** -0.32
34053 C 35.1069 21.6324 123.337 C.3 0 **** 0.16
34054 C 34.0528 21.6015 122.152 C.3 0 **** 0
34055 C 32.1119 20.0329 120.328 C.3 0 **** -0.053
34056 C 31.6188 20.8888 121.493 C.3 0 **** -0.053
34057 C 32.682 21.1099 122.633 C.3 0 **** 0
34058 C 30.509 20.1992 122.21 C.3 0 **** -0.053
34059 C 29.588 19.5115 121.237 C.3 0 **** -0.106
34060 C 30.3494 18.3098 120.608 C.3 0 **** -0.106
34061 C 31.8756 18.5336 120.61 C.3 0 **** -0.106
34062 C 32.1635 22.1335 123.616 C.3 0 **** 0
34063 C 33.1654 22.451 124.765 C.3 0 **** 0
34064 C 34.6444 22.5793 124.41 C.3 0 **** 0
34065 C 29.8494 21.3451 122.973 C.3 0 **** 0
34066 C 30.779 21.7881 124.118 C.3 0 **** 0
34067 C 43.7211 10.8911 108.414 C.3 0 **** -0.053
34068 C 42.9635 11.1919 109.716 C.3 0 **** -0.159
34069 C 43.2285 9.57092 107.81 C.3 0 **** -0.159
34070 O 35.0701 17.976 112.575 O.3 0 **** -0.57
34071 C 35.6543 23.3343 125.32 C.3 0 **** -0.053
34072 C 35.1572 23.6658 126.731 C.3 0 **** -0.053
34073 C 33.7003 24.1601 126.679 C.3 0 **** 0
34074 C 32.7094 23.1397 126.038 C.3 0 **** 0
34075 C 31.2111 23.3842 126.071 C.3 0 **** 0
34076 C 30.6971 24.2974 127.145 C.3 0 **** 0
34077 C 31.7264 24.8535 128.161 C.3 0 **** 0
34078 C 33.2307 24.4953 128.098 C.3 0 **** -0.053
34079 C 31.2163 25.5994 129.386 C.3 0 **** -0.053
34080 C 29.6982 25.5852 129.67 C.3 0 **** -0.053
34081 C 28.739 25.2272 128.493 C.3 0 **** 0
34082 C 29.2404 24.0543 127.61 C.3 0 **** 0
34083 C 28.2948 23.8007 126.372 C.3 0 **** 0
34084 C 28.8395 22.6038 125.504 C.3 0 **** 0
34085 C 30.2491 22.9281 124.969 C.3 0 **** 0
34086 C 26.8535 23.4953 126.89 C.3 0 **** 0
34087 C 26.3644 24.7145 127.758 C.3 0 **** -0.053
34088 C 27.2935 24.9767 128.959 C.3 0 **** -0.053
34089 C 28.4373 21.032 123.51 C.3 0 **** -0.053
34090 C 27.9261 22.3578 124.236 C.3 0 **** 0
34091 C 25.8764 23.2684 125.649 C.3 0 **** 0.02
34092 C 26.4239 22.1641 124.677 C.3 0 **** 0
34093 C 25.5488 21.7361 123.475 C.3 0 **** -0.106
34094 C 24.2499 22.4906 123.505 C.3 0 **** -0.106
34095 C 23.6212 22.3989 124.891 C.3 0 **** -0.086
34096 C 24.4391 22.9115 126.018 C.2 0 **** 0.379
34097 O 23.9285 23.0885 127.111 O.2 0 **** -0.419
34098 H 49.5445 10.6283 110.576 H 0 **** 0.053
34099 H 49.3445 12.3629 110.805 H 0 **** 0.053
34100 H 50.2874 10.8919 108.331 H 0 **** 0.053
34101 H 49.5468 12.4781 108.469 H 0 **** 0.053
34102 H 52.4702 11.6807 108.872 H 0 **** 0.053
34103 H 52.9619 13.9571 109.696 H 0 **** 0.053
34104 H 51.2701 13.51 111.925 H 0 **** 0.053
34105 H 52.8199 12.719 111.658 H 0 **** 0.053
34106 H 50.0097 14.3924 110.142 H 0 **** 0.053
34107 H 49.7595 14.5659 107.818 H 0 **** 0.053
34108 H 52.745 15.0734 107.636 H 0 **** 0.053
34109 H 51.653 14.9757 106.25 H 0 **** 0.053
34110 H 52.9262 12.7799 106.902 H 0 **** 0.053
34111 H 51.1981 12.6387 106.6 H 0 **** 0.053
34112 H 49.5354 18.1126 108.592 H 0 **** 0.053
34113 H 51.3476 18.0299 109.962 H 0 **** 0.053
34114 H 51.54 15.6992 111.529 H 0 **** 0.053
34115 H 52.4831 16.1469 110.101 H 0 **** 0.053
34116 H 48.5035 15.3335 109.367 H 0 **** 0.053
34117 H 47.8808 18.6662 114.735 H 0 **** 0.053
34118 H 48.8127 17.1766 114.427 H 0 **** 0.053
34119 H 50.4031 19.1246 114.446 H 0 **** 0.053
34120 H 49.3336 20.0238 113.358 H 0 **** 0.053
34121 H 51.4765 18.8341 112.293 H 0 **** 0.1268
34122 H 46.5684 14.5995 108.494 H 0 **** 0.053
34123 H 46.1439 18.3832 105.762 H 0 **** 0.053
34124 H 47.1022 17.2142 104.782 H 0 **** 0.053
34125 H 48.5005 17.8952 106.751 H 0 **** 0.1268
34126 H 44.5438 17.1457 104.082 H 0 **** 0.053
34127 H 45.0947 15.4565 103.964 H 0 **** 0.053
34128 H 42.6198 15.4251 104.141 H 0 **** 0.053
34129 H 42.6756 16.4769 105.572 H 0 **** 0.053
34130 H 45.5603 12.8814 107.824 H 0 **** 0.053
34131 H 44.2601 13.5346 108.819 H 0 **** 0.053
34132 H 44.0525 11.6529 106.43 H 0 **** 0.053
34133 H 41.8283 13.066 107.991 H 0 **** 0.053
34134 H 41.5254 11.7088 106.901 H 0 **** 0.053
34135 H 41.2546 14.0392 105.841 H 0 **** 0.053
34136 H 42.3238 12.9102 104.969 H 0 **** 0.053
34137 H 43.3838 15.8387 108.469 H 0 **** 0.053
34138 H 38.9406 16.7912 111.439 H 0 **** 0.053
34139 H 37.12 17.2866 112.841 H 0 **** 0.053
34140 H 44.6178 18.9659 115.895 H 0 **** 0.053
34141 H 33.1625 17.4341 116.645 H 0 **** 0.053
34142 H 34.2313 16.593 114.767 H 0 **** 0.053
34143 H 34.0763 19.4165 113.637 H 0 **** 0.053
34144 H 32.1709 17.9768 113.004 H 0 **** 0.053
34145 H 32.9325 16.3814 112.796 H 0 **** 0.053
34146 H 31.8168 15.7106 115.036 H 0 **** 0.053
34147 H 30.66 15.9597 113.72 H 0 **** 0.053
34148 H 29.9607 18.0657 114.527 H 0 **** 0.053
34149 H 31.7016 19.4549 114.943 H 0 **** 0.053
34150 H 31.5319 18.6015 117.856 H 0 **** 0.053
34151 H 31.7106 20.2487 117.204 H 0 **** 0.053
34152 H 29.3816 20.0248 116.257 H 0 **** 0.053
34153 H 29.3535 19.8678 118.011 H 0 **** 0.053
34154 H 28.1074 18.0406 116.387 H 0 **** 0.053
34155 H 28.7707 17.5675 117.944 H 0 **** 0.053
34156 H 30.5287 16.5554 116.934 H 0 **** 0.353
34157 H 44.2564 22.0968 118.812 H 0 **** 0.053
34158 H 45.8818 20.2313 118.565 H 0 **** 0.053
34159 H 43.7911 18.2024 119.409 H 0 **** 0.053
34160 H 45.5385 18.0588 119.388 H 0 **** 0.053
34161 H 45.1114 18.1901 121.731 H 0 **** 0.053
34162 H 43.7084 19.2465 121.522 H 0 **** 0.053
34163 H 46.6066 20.1281 121.029 H 0 **** 0.053
34164 H 45.7253 20.4729 122.532 H 0 **** 0.053
34165 H 45.8124 22.3445 120.625 H 0 **** 0.053
34166 H 44.2735 22.0532 121.465 H 0 **** 0.053
34167 H 40.8953 21.311 121.106 H 0 **** 0.053
34168 H 38.964 21.8215 122.498 H 0 **** 0.053
34169 H 33.4366 19.285 118.162 H 0 **** 0.053
34170 H 31.5534 20.2899 119.438 H 0 **** 0.053
34171 H 31.3086 21.8725 121.089 H 0 **** 0.053
34172 H 30.8831 19.4431 122.933 H 0 **** 0.053
34173 H 29.2947 20.239 120.457 H 0 **** 0.053
34174 H 28.6457 19.1365 121.693 H 0 **** 0.053
34175 H 30.008 18.1573 119.564 H 0 **** 0.053
34176 H 30.094 17.38 121.151 H 0 **** 0.053
34177 H 32.3572 17.8757 119.864 H 0 **** 0.053
34178 H 32.3095 18.2742 121.585 H 0 **** 0.053
34179 H 44.7888 10.7529 108.671 H 0 **** 0.053
34180 H 43.1396 10.4018 110.463 H 0 **** 0.053
34181 H 41.8776 11.2445 109.534 H 0 **** 0.053
34182 H 43.2714 12.1483 110.168 H 0 **** 0.053
34183 H 43.8 9.30803 106.906 H 0 **** 0.053
34184 H 42.1659 9.63827 107.529 H 0 **** 0.053
34185 H 43.3361 8.74191 108.527 H 0 **** 0.053
34186 H 35.6486 18.6437 112.211 H 0 **** 0.41
34187 H 36.7383 23.0516 125.203 H 0 **** 0.053
34188 H 35.8424 24.3917 127.25 H 0 **** 0.053
34189 H 33.8813 25.238 128.635 H 0 **** 0.053
34190 H 31.9446 26.0734 130.092 H 0 **** 0.053
34191 H 29.3276 26.3114 130.436 H 0 **** 0.053
34192 H 25.3087 24.5917 128.121 H 0 **** 0.053
34193 H 26.9342 25.7953 129.625 H 0 **** 0.053
34194 H 27.7211 20.7493 122.655 H 0 **** 0.053
34195 H 26.0754 21.8871 122.516 H 0 **** 0.053
34196 H 25.4163 20.665 123.619 H 0 **** 0.053
34197 H 23.5683 22.0899 122.759 H 0 **** 0.053
34198 H 24.4384 23.5486 123.233 H 0 **** 0.053
34199 H 23.4393 21.3585 125.172 H 0 **** 0.053
34200 H 22.7071 22.9729 125.024 H 0 **** 0.053
34201 C 77.307 1.24157 148.733 C.3 0 **** 0.054
34202 C 77.1045 0.788435 150.208 C.3 0 **** -0.106
34203 C 76.808 -0.734809 150.29 C.3 0 **** -0.053
34204 C 75.8697 -1.11364 149.119 C.3 0 **** -0.053
34205 C 76.5304 -0.732915 147.76 C.3 0 **** 0.054
34206 O 77.6419 0.139117 147.907 O.3 0 **** -0.32
34207 C 74.4754 -0.439943 149.284 C.3 0 **** -0.053
34208 C 74.0097 -0.369458 150.788 C.3 0 **** 0.107
34209 C 74.7314 -1.42309 151.619 C.3 0 **** -0.106
34210 C 76.2491 -1.17998 151.664 C.3 0 **** -0.106
34211 O 72.6051 -0.571843 150.979 O.3 0 **** -0.32
34212 C 71.8603 0.124815 149.992 C.3 0 **** 0.107
34213 C 71.9733 -0.685972 148.673 C.3 0 **** -0.053
34214 C 73.4259 -1.16195 148.415 C.3 0 **** -0.106
34215 C 71.4062 -0.00779569 147.453 C.2 0 **** 0
34216 C 71.5448 1.50753 147.412 C.3 0 **** 0
34217 C 71.4371 2.22106 148.759 C.3 0 **** 0
34218 C 72.2144 1.6084 149.917 C.3 0 **** -0.053
34219 C 71.5965 3.72664 148.685 C.3 0 **** 0
34220 C 70.6234 4.32426 147.675 C.3 0 **** 0
34221 C 70.8417 3.61274 146.287 C.3 0 **** 0.16
34222 C 70.6395 2.11527 146.36 C.3 0 **** 0
34223 C 70.6839 1.41526 144.974 C.3 0 **** -0.106
34224 C 70.1235 0.0266761 145.242 C.3 0 **** -0.106
34225 C 70.766 -0.650526 146.447 C.2 0 **** -0.1268
34226 O 70.2865 4.19489 145.087 O.3 0 **** -0.32
34227 C 69.5289 5.3558 145.352 C.3 0 **** 0.16
34228 C 70.1936 6.42197 146.285 C.3 0 **** 0
34229 C 70.8444 5.85642 147.573 C.3 0 **** 0
34230 C 71.9144 2.38037 151.176 C.2 0 **** 0
34231 C 72.457 3.78049 151.116 C.3 0 **** -0.053
34232 C 71.5533 4.45051 150.042 C.3 0 **** 0
34233 C 72.3629 4.62125 152.37 C.2 0 **** 0
34234 C 71.5048 4.21807 153.343 C.2 0 **** 0
34235 C 70.7719 2.88517 153.326 C.3 0 **** -0.106
34236 C 71.1451 1.96485 152.176 C.2 0 **** -0.1268
34237 C 71.3807 4.99013 154.633 C.3 0 **** -0.106
34238 C 71.5559 6.47446 154.356 C.3 0 **** -0.106
34239 C 72.7785 6.67737 153.478 C.2 0 **** 0
34240 C 73.1356 5.74188 152.539 C.2 0 **** 0
34241 C 74.328 6.00841 151.64 C.3 0 **** -0.106
34242 C 75.2512 7.10447 152.152 C.3 0 **** -0.053
34243 C 74.4197 8.35031 152.502 C.3 0 **** -0.106
34244 C 73.4581 8.01965 153.649 C.3 0 **** -0.106
34245 C 70.6134 6.51039 148.941 C.3 0 **** 0.147
34246 C 71.6638 5.99419 149.914 C.3 0 **** -0.053
34247 C 69.373 7.70016 146.49 C.3 0 **** 0
34248 C 69.9741 8.75546 147.427 C.3 0 **** 0.147
34249 S 70.6435 8.32552 149.015 S.3 0 **** -0.294
34250 C 69.2059 10.0458 147.506 C.3 0 **** -0.053
34251 C 69.0067 10.5906 146.085 C.3 0 **** 0
34252 C 68.2845 9.54635 145.15 C.3 0 **** 0
34253 C 69.1258 8.25658 145.06 C.3 0 **** 0
34254 C 68.1167 10.161 143.768 C.3 0 **** 0
34255 C 67.2887 11.4259 143.875 C.3 0 **** 0
34256 C 67.9206 12.512 144.843 C.3 0 **** 0
34257 C 68.1314 11.8717 146.264 C.3 0 **** -0.053
34258 C 66.9045 13.6837 144.948 C.3 0 **** 0
34259 C 66.8742 14.361 143.595 C.3 0 **** 0.16
34260 C 66.5056 13.4062 142.456 C.3 0 **** 0
34261 C 66.7968 11.9363 142.549 C.3 0 **** 0
34262 C 68.5764 7.20558 144.058 C.3 0 **** 0
34263 C 69.4305 5.94482 143.969 C.3 0 **** -0.053
34264 C 67.7938 9.20649 142.597 C.3 0 **** 0
34265 C 67.8074 7.68943 142.799 C.3 0 **** 0
34266 C 66.9447 11.1254 141.261 C.3 0 **** 0
34267 C 66.7491 9.62714 141.56 C.3 0 **** 0
34268 C 65.7757 13.9209 141.215 C.3 0 **** 0
34269 C 66.0101 13.0052 139.972 C.3 0 **** 0
34270 C 65.8352 11.4998 140.245 C.3 0 **** 0
34271 O 66.0877 15.5278 143.701 O.3 0 **** -0.32
34272 C 67.0356 16.4938 144.153 C.3 0 **** 0.107
34273 C 67.7553 15.9859 145.444 C.3 0 **** -0.053
34274 C 67.0092 14.7877 146.027 C.3 0 **** 0.107
34275 C 67.871 17.1146 146.479 C.3 0 **** -0.106
34276 C 68.2122 18.4411 145.776 C.3 0 **** -0.106
34277 C 67.0122 18.9333 144.945 C.3 0 **** 0.134
34278 C 66.2125 17.7519 144.333 C.3 0 **** -0.053
34279 C 65.5339 18.1341 142.994 C.3 0 **** -0.106
34280 C 65.0775 19.5865 143.043 C.3 0 **** -0.106
34281 C 66.2892 20.5371 143.287 C.3 0 **** 0.081
34282 N 67.4266 19.8981 143.946 N.3 0 **** -0.727
34283 C 67.9536 6.90876 141.466 C.3 0 **** 0.16
34284 C 66.8319 7.32454 140.527 C.3 0 **** 0.16
34285 C 66.9916 8.78686 140.225 C.3 0 **** 0
34286 O 66.7648 6.58986 139.324 O.3 0 **** -0.32
34287 C 66.8128 5.19602 139.608 C.3 0 **** 0.107
34288 C 68.084 4.88854 140.338 C.3 0 **** 0.107
34289 O 67.9922 5.49804 141.615 O.3 0 **** -0.32
34290 C 69.3388 5.36671 139.563 C.3 0 **** -0.106
34291 C 69.0966 5.38679 138.026 C.3 0 **** -0.106
34292 C 68.0999 4.27854 137.632 C.3 0 **** -0.106
34293 C 66.7023 4.4926 138.279 C.3 0 **** -0.106
34294 C 66.0172 10.6808 138.89 C.3 0 **** 0
34295 C 65.866 9.15838 139.205 C.3 0 **** -0.053
34296 C 64.9889 13.3868 138.888 C.3 0 **** 0
34297 C 65.1208 12.5131 137.623 C.3 0 **** 0.16
34298 C 64.9783 11.0586 137.85 C.3 0 **** -0.053
34299 C 65.2566 14.909 138.563 C.3 0 **** 0
34300 C 65.0612 15.794 139.861 C.3 0 **** 0
34301 C 66.1647 15.379 140.846 C.3 0 **** -0.053
34302 O 64.3001 12.8613 136.556 O.3 0 **** -0.32
34303 C 64.358 14.2707 136.363 C.3 0 **** 0.16
34304 C 64.1008 15.2119 137.615 C.3 0 **** 0
34305 C 65.1056 17.33 139.629 C.3 0 **** -0.053
34306 C 64.1902 17.69 138.46 C.3 0 **** -0.053
34307 C 64.2632 16.6915 137.245 C.3 0 **** 0
34308 C 64.6137 18.9814 137.848 C.3 0 **** -0.053
34309 C 65.0321 19.9652 138.908 C.3 0 **** -0.106
34310 C 66.3629 19.4666 139.542 C.3 0 **** -0.106
34311 C 66.5119 17.9353 139.43 C.3 0 **** -0.106
34312 C 63.1738 17.0231 136.253 C.3 0 **** 0
34313 C 63.1372 16.0615 135.028 C.3 0 **** 0
34314 C 63.3605 14.5729 135.279 C.3 0 **** 0
34315 C 63.3654 19.4043 137.078 C.3 0 **** 0
34316 C 63.1913 18.4829 135.857 C.3 0 **** 0
34317 C 76.4206 7.37895 151.171 C.3 0 **** -0.053
34318 C 75.9842 8.13713 149.909 C.3 0 **** -0.159
34319 C 77.5662 8.12511 151.865 C.3 0 **** -0.159
34320 O 67.5889 14.3833 147.26 O.3 0 **** -0.57
34321 C 62.8939 13.4821 134.274 C.3 0 **** -0.053
34322 C 62.4934 13.9884 132.885 C.3 0 **** -0.053
34323 C 61.6644 15.2791 133.007 C.3 0 **** 0
34324 C 62.3979 16.4336 133.757 C.3 0 **** 0
34325 C 61.8009 17.8284 133.81 C.3 0 **** 0
34326 C 60.825 18.1894 132.729 C.3 0 **** 0
34327 C 60.5563 17.1331 131.628 C.3 0 **** 0
34328 C 61.2669 15.7586 131.608 C.3 0 **** -0.053
34329 C 59.752 17.5425 130.402 C.3 0 **** -0.053
34330 C 59.4053 19.0365 130.22 C.3 0 **** -0.053
34331 C 59.4899 19.9644 131.471 C.3 0 **** 0
34332 C 60.723 19.6923 132.372 C.3 0 **** 0
34333 C 60.7072 20.5774 133.678 C.3 0 **** 0
34334 C 61.9746 20.2699 134.562 C.3 0 **** 0
34335 C 61.9825 18.7883 134.991 C.3 0 **** 0
34336 C 60.6728 22.0842 133.268 C.3 0 **** 0
34337 C 59.3971 22.3322 132.38 C.3 0 **** -0.053
34338 C 59.3995 21.4582 131.111 C.3 0 **** -0.053
34339 C 63.346 20.8857 136.648 C.3 0 **** -0.053
34340 C 61.9581 21.1203 135.896 C.3 0 **** 0
34341 C 60.6237 22.9937 134.579 C.3 0 **** 0.02
34342 C 61.7986 22.6538 135.562 C.3 0 **** 0
34343 C 61.9695 23.5141 136.837 C.3 0 **** -0.106
34344 C 60.9276 24.5969 136.857 C.3 0 **** -0.106
34345 C 60.9045 25.3289 135.52 C.3 0 **** -0.086
34346 C 60.6356 24.4979 134.32 C.2 0 **** 0.379
34347 O 60.3716 25.03 133.255 O.2 0 **** -0.419
34348 H 78.1346 1.95944 148.653 H 0 **** 0.053
34349 H 76.41 1.75841 148.358 H 0 **** 0.053
34350 H 77.9928 1.01243 150.831 H 0 **** 0.053
34351 H 76.2799 1.3634 150.669 H 0 **** 0.053
34352 H 77.7667 -1.24953 150.115 H 0 **** 0.053
34353 H 75.6993 -2.20537 149.159 H 0 **** 0.053
34354 H 75.7908 -0.296969 147.066 H 0 **** 0.053
34355 H 76.9227 -1.62999 147.268 H 0 **** 0.053
34356 H 74.5815 0.583754 148.885 H 0 **** 0.053
34357 H 74.2864 0.614223 151.21 H 0 **** 0.053
34358 H 74.5053 -2.41138 151.176 H 0 **** 0.053
34359 H 74.2982 -1.43215 152.632 H 0 **** 0.053
34360 H 76.7531 -2.09659 152 H 0 **** 0.053
34361 H 76.4669 -0.4114 152.42 H 0 **** 0.053
34362 H 70.8134 0.0464566 150.292 H 0 **** 0.053
34363 H 71.3676 -1.58848 148.813 H 0 **** 0.053
34364 H 73.7203 -1.10679 147.344 H 0 **** 0.053
34365 H 73.4711 -2.23139 148.686 H 0 **** 0.053
34366 H 73.2846 1.76241 149.712 H 0 **** 0.053
34367 H 70.0548 1.96916 144.249 H 0 **** 0.053
34368 H 71.7151 1.39729 144.563 H 0 **** 0.053
34369 H 70.2069 -0.604213 144.353 H 0 **** 0.053
34370 H 69.0467 0.138524 145.466 H 0 **** 0.053
34371 H 70.685 -1.73304 146.444 H 0 **** 0.1268
34372 H 73.5081 3.7465 150.74 H 0 **** 0.053
34373 H 69.6544 3.05754 153.319 H 0 **** 0.053
34374 H 70.993 2.33867 154.287 H 0 **** 0.053
34375 H 70.7232 0.964494 152.204 H 0 **** 0.1268
34376 H 70.4201 4.77945 155.149 H 0 **** 0.053
34377 H 72.1852 4.6298 155.293 H 0 **** 0.053
34378 H 71.6345 7.05229 155.298 H 0 **** 0.053
34379 H 70.6682 6.86119 153.819 H 0 **** 0.053
34380 H 74.9137 5.08139 151.552 H 0 **** 0.053
34381 H 73.9965 6.25906 150.613 H 0 **** 0.053
34382 H 75.7044 6.73113 153.093 H 0 **** 0.053
34383 H 73.8438 8.6648 151.617 H 0 **** 0.053
34384 H 75.0569 9.2004 152.784 H 0 **** 0.053
34385 H 72.7006 8.83114 153.753 H 0 **** 0.053
34386 H 74.0277 7.99957 154.605 H 0 **** 0.053
34387 H 71.5402 6.53555 150.914 H 0 **** 0.053
34388 H 69.6352 10.8317 148.197 H 0 **** 0.053
34389 H 68.7576 12.5807 146.894 H 0 **** 0.053
34390 H 69.0143 5.14377 143.29 H 0 **** 0.053
34391 H 67.7741 16.6583 143.351 H 0 **** 0.053
34392 H 68.7929 15.6846 145.192 H 0 **** 0.053
34393 H 65.9833 15.082 146.2 H 0 **** 0.053
34394 H 66.9053 17.2226 147.02 H 0 **** 0.053
34395 H 68.6301 16.8481 147.25 H 0 **** 0.053
34396 H 69.0779 18.2522 145.12 H 0 **** 0.053
34397 H 68.5207 19.2171 146.494 H 0 **** 0.053
34398 H 66.3328 19.4538 145.639 H 0 **** 0.053
34399 H 65.414 17.4687 145.049 H 0 **** 0.053
34400 H 66.2849 18.049 142.195 H 0 **** 0.053
34401 H 64.7106 17.4369 142.759 H 0 **** 0.053
34402 H 64.3424 19.6762 143.863 H 0 **** 0.053
34403 H 64.5377 19.8693 142.123 H 0 **** 0.053
34404 H 65.9659 21.3894 143.906 H 0 **** 0.053
34405 H 66.6287 20.9746 142.332 H 0 **** 0.053
34406 H 68.0047 19.4379 143.272 H 0 **** 0.353
34407 H 65.973 4.96529 140.263 H 0 **** 0.053
34408 H 68.1661 3.81529 140.489 H 0 **** 0.053
34409 H 69.6574 6.38388 139.875 H 0 **** 0.053
34410 H 70.2155 4.72388 139.789 H 0 **** 0.053
34411 H 70.0527 5.27865 137.475 H 0 **** 0.053
34412 H 68.6849 6.37148 137.726 H 0 **** 0.053
34413 H 68.5106 3.31877 137.991 H 0 **** 0.053
34414 H 68.0077 4.20103 136.533 H 0 **** 0.053
34415 H 66.1578 3.53235 138.344 H 0 **** 0.053
34416 H 66.0954 5.15394 137.619 H 0 **** 0.053
34417 H 65.9948 8.57582 138.229 H 0 **** 0.053
34418 H 65.0762 10.4276 136.942 H 0 **** 0.053
34419 H 66.0873 16.0651 141.736 H 0 **** 0.053
34420 H 64.6968 17.7446 140.54 H 0 **** 0.053
34421 H 63.1496 17.7274 138.838 H 0 **** 0.053
34422 H 65.4578 18.8515 137.138 H 0 **** 0.053
34423 H 64.2335 20.019 139.672 H 0 **** 0.053
34424 H 65.1833 21.0002 138.532 H 0 **** 0.053
34425 H 66.3993 19.7566 140.611 H 0 **** 0.053
34426 H 67.2195 19.9744 139.058 H 0 **** 0.053
34427 H 67.2445 17.5702 140.173 H 0 **** 0.053
34428 H 66.8956 17.6482 138.443 H 0 **** 0.053
34429 H 76.8182 6.39631 150.853 H 0 **** 0.053
34430 H 76.8146 8.20892 149.188 H 0 **** 0.053
34431 H 75.6674 9.16305 150.158 H 0 **** 0.053
34432 H 75.143 7.64513 149.395 H 0 **** 0.053
34433 H 77.9324 7.56736 152.742 H 0 **** 0.053
34434 H 77.2378 9.11768 152.211 H 0 **** 0.053
34435 H 78.417 8.2702 151.182 H 0 **** 0.053
34436 H 67.0705 13.6369 147.555 H 0 **** 0.41
34437 H 63.4254 12.4908 134.333 H 0 **** 0.053
34438 H 61.9689 13.1909 132.29 H 0 **** 0.053
34439 H 60.717 14.9915 130.998 H 0 **** 0.053
34440 H 59.4822 16.7756 129.632 H 0 **** 0.053
34441 H 58.6344 19.2794 129.447 H 0 **** 0.053
34442 H 59.2729 23.4106 132.092 H 0 **** 0.053
34443 H 58.5379 21.6609 130.433 H 0 **** 0.053
34444 H 63.4247 21.584 137.558 H 0 **** 0.053
34445 H 61.9219 22.8969 137.751 H 0 **** 0.053
34446 H 62.9809 23.9079 136.75 H 0 **** 0.053
34447 H 61.1346 25.2977 137.664 H 0 **** 0.053
34448 H 59.9375 24.1442 137.068 H 0 **** 0.053
34449 H 61.8782 25.7733 135.299 H 0 **** 0.053
34450 H 60.1318 26.0878 135.42 H 0 **** 0.053
34451 C 57.7469 98.8548 166.931 C.3 0 **** 0.054
34452 C 57.6651 99.6638 168.258 C.3 0 **** -0.106
34453 C 59.0025 100.4 168.548 C.3 0 **** -0.053
34454 C 60.1709 99.4607 168.164 C.3 0 **** -0.053
34455 C 60.0576 99.0525 166.664 C.3 0 **** 0.054
34456 O 58.7867 99.3468 166.102 O.3 0 **** -0.32
34457 C 60.2087 98.2121 169.093 C.3 0 **** -0.053
34458 C 59.8142 98.5515 170.582 C.3 0 **** 0.107
34459 C 60.028 100.033 170.865 C.3 0 **** -0.106
34460 C 59.1155 100.921 170.002 C.3 0 **** -0.106
34461 O 60.5548 97.8232 171.567 O.3 0 **** -0.32
34462 C 60.6975 96.4646 171.183 C.3 0 **** 0.107
34463 C 61.7846 96.4114 170.077 C.3 0 **** -0.053
34464 C 61.5946 97.5395 169.03 C.3 0 **** -0.106
34465 C 61.9462 95.0743 169.4 C.2 0 **** 0
34466 C 60.673 94.2563 169.236 C.3 0 **** 0
34467 C 59.6516 94.3834 170.366 C.3 0 **** 0
34468 C 59.363 95.7931 170.867 C.3 0 **** -0.053
34469 C 58.3887 93.5698 170.163 C.3 0 **** 0
34470 C 58.7254 92.1066 169.897 C.3 0 **** 0
34471 C 59.7088 92.0335 168.67 C.3 0 **** 0.16
34472 C 60.9853 92.813 168.896 C.3 0 **** 0
34473 C 62.0393 92.6181 167.772 C.3 0 **** -0.106
34474 C 63.3212 93.1851 168.363 C.3 0 **** -0.106
34475 C 63.1297 94.5647 168.983 C.2 0 **** -0.1268
34476 O 59.9354 90.7702 168.006 O.3 0 **** -0.32
34477 C 59.2487 89.7049 168.628 C.3 0 **** 0.16
34478 C 57.7385 89.9485 168.958 C.3 0 **** 0
34479 C 57.4228 91.3056 169.635 C.3 0 **** 0
34480 C 58.4155 95.717 172.036 C.2 0 **** 0
34481 C 57.0559 95.2272 171.623 C.3 0 **** -0.053
34482 C 57.3257 93.7381 171.263 C.3 0 **** 0
34483 C 55.9592 95.2477 172.665 C.2 0 **** 0
34484 C 56.3213 95.3653 173.969 C.2 0 **** 0
34485 C 57.744 95.6487 174.429 C.3 0 **** -0.106
34486 C 58.7384 95.9088 173.31 C.2 0 **** -0.1268
34487 C 55.2784 95.4239 175.061 C.3 0 **** -0.106
34488 C 54.1048 94.5317 174.684 C.3 0 **** -0.106
34489 C 53.7001 94.8209 173.249 C.2 0 **** 0
34490 C 54.6359 95.1785 172.311 C.2 0 **** 0
34491 C 54.2016 95.4017 170.875 C.3 0 **** -0.106
34492 C 52.7024 95.6068 170.712 C.3 0 **** -0.053
34493 C 51.9504 94.4811 171.442 C.3 0 **** -0.106
34494 C 52.2399 94.5619 172.945 C.3 0 **** -0.106
34495 C 56.4987 91.3954 170.857 C.3 0 **** 0.147
34496 C 56.0746 92.8448 171.044 C.3 0 **** -0.053
34497 C 57.0086 88.7442 169.563 C.3 0 **** 0
34498 C 55.5349 88.9536 169.932 C.3 0 **** 0.147
34499 S 54.9913 90.3812 170.84 S.3 0 **** -0.294
34500 C 54.8181 87.7197 170.406 C.3 0 **** -0.053
34501 C 54.9908 86.6142 169.356 C.3 0 **** 0
34502 C 56.5109 86.3183 169.058 C.3 0 **** 0
34503 C 57.1983 87.5956 168.533 C.3 0 **** 0
34504 C 56.5987 85.2104 168.018 C.3 0 **** 0
34505 C 55.9194 83.9641 168.549 C.3 0 **** 0
34506 C 54.3946 84.191 168.926 C.3 0 **** 0
34507 C 54.2934 85.3599 169.973 C.3 0 **** -0.053
34508 C 53.8774 82.8731 169.568 C.3 0 **** 0
34509 C 53.8405 81.8335 168.469 C.3 0 **** 0.16
34510 C 55.2024 81.625 167.799 C.3 0 **** 0
34511 C 56.2184 82.7289 167.746 C.3 0 **** 0
34512 C 58.6681 87.3885 168.079 C.3 0 **** 0
34513 C 59.3263 88.6573 167.547 C.3 0 **** -0.053
34514 C 57.9487 85.0194 167.291 C.3 0 **** 0
34515 C 59.094 86.0139 167.497 C.3 0 **** 0
34516 C 57.2801 82.7118 166.646 C.3 0 **** 0
34517 C 58.4711 83.6001 167.052 C.3 0 **** 0
34518 C 55.5769 80.268 167.203 C.3 0 **** 0
34519 C 56.6654 80.392 166.091 C.3 0 **** 0
34520 C 57.8617 81.2865 166.464 C.3 0 **** 0
34521 O 53.2216 80.6726 168.979 O.3 0 **** -0.32
34522 C 51.8381 80.9426 168.756 C.3 0 **** 0.107
34523 C 51.4424 82.3133 169.395 C.3 0 **** -0.053
34524 C 52.5405 82.7893 170.344 C.3 0 **** 0.107
34525 C 50.0974 82.2012 170.127 C.3 0 **** -0.106
34526 C 49.1277 81.3235 169.315 C.3 0 **** -0.106
34527 C 49.5877 79.8541 169.333 C.3 0 **** 0.134
34528 C 51.1356 79.7368 169.345 C.3 0 **** -0.053
34529 C 51.6314 78.4456 168.647 C.3 0 **** -0.106
34530 C 50.6505 77.3094 168.907 C.3 0 **** -0.106
34531 C 49.2347 77.6684 168.362 C.3 0 **** 0.081
34532 N 48.9838 79.1039 168.25 N.3 0 **** -0.727
34533 C 60.1468 85.9581 166.358 C.3 0 **** 0.16
34534 C 60.6725 84.5358 166.243 C.3 0 **** 0.16
34535 C 59.528 83.6432 165.857 C.3 0 **** 0
34536 O 61.739 84.3705 165.333 O.3 0 **** -0.32
34537 C 62.7384 85.3535 165.581 C.3 0 **** 0.107
34538 C 62.1329 86.7157 165.435 C.3 0 **** 0.107
34539 O 61.2142 86.8821 166.502 O.3 0 **** -0.32
34540 C 61.4529 86.9134 164.055 C.3 0 **** -0.106
34541 C 62.1125 86.0347 162.954 C.3 0 **** -0.106
34542 C 63.6119 85.8424 163.256 C.3 0 **** -0.106
34543 C 63.8456 85.0834 164.593 C.3 0 **** -0.106
34544 C 58.937 81.2672 165.288 C.3 0 **** 0
34545 C 60.1213 82.207 165.681 C.3 0 **** -0.053
34546 C 57.2257 78.9902 165.8 C.3 0 **** 0
34547 C 58.335 79.0108 164.728 C.3 0 **** 0.16
34548 C 59.4919 79.8758 165.043 C.3 0 **** -0.053
34549 C 55.9915 78.1236 165.331 C.3 0 **** 0
34550 C 54.89 78.0688 166.467 C.3 0 **** 0
34551 C 54.3549 79.4998 166.63 C.3 0 **** -0.053
34552 O 58.8236 77.7696 164.336 O.3 0 **** -0.32
34553 C 57.7292 76.8908 164.1 C.3 0 **** 0.16
34554 C 56.6277 76.7405 165.232 C.3 0 **** 0
34555 C 53.7139 77.0879 166.202 C.3 0 **** -0.053
34556 C 54.2739 75.7303 165.783 C.3 0 **** -0.053
34557 C 55.4931 75.8082 164.79 C.3 0 **** 0
34558 C 53.2601 74.9713 164.997 C.3 0 **** -0.053
34559 C 51.8831 75.158 165.577 C.3 0 **** -0.106
34560 C 51.4401 76.6278 165.324 C.3 0 **** -0.106
34561 C 52.6494 77.5769 165.197 C.3 0 **** -0.106
34562 C 56.0917 74.4324 164.616 C.3 0 **** 0
34563 C 57.3343 74.4121 163.677 C.3 0 **** 0
34564 C 58.3429 75.551 163.799 C.3 0 **** 0
34565 C 53.7764 73.538 165.093 C.3 0 **** 0
34566 C 55.0495 73.4034 164.237 C.3 0 **** 0
34567 C 52.3016 95.7737 169.223 C.3 0 **** -0.053
34568 C 52.3536 94.4575 168.433 C.3 0 **** -0.159
34569 C 50.916 96.4158 169.088 C.3 0 **** -0.159
34570 O 52.1478 83.9786 171.016 O.3 0 **** -0.57
34571 C 59.8079 75.4211 163.295 C.3 0 **** -0.053
34572 C 60.093 74.2189 162.389 C.3 0 **** -0.053
34573 C 59.3882 72.9637 162.935 C.3 0 **** 0
34574 C 57.8418 73.1168 163.072 C.3 0 **** 0
34575 C 56.9696 71.9229 163.418 C.3 0 **** 0
34576 C 57.5259 70.5642 163.108 C.3 0 **** 0
34577 C 58.9045 70.5022 162.404 C.3 0 **** 0
34578 C 59.6977 71.7743 162.02 C.3 0 **** -0.053
34579 C 59.3982 69.1615 161.878 C.3 0 **** -0.053
34580 C 58.4161 67.9695 161.881 C.3 0 **** -0.053
34581 C 57.1685 68.0542 162.814 C.3 0 **** 0
34582 C 56.4894 69.4488 162.827 C.3 0 **** 0
34583 C 55.3017 69.5175 163.865 C.3 0 **** 0
34584 C 54.6415 70.9478 163.846 C.3 0 **** 0
34585 C 55.6777 72.0215 164.237 C.3 0 **** 0
34586 C 54.2508 68.4196 163.504 C.3 0 **** 0
34587 C 54.9645 67.0167 163.526 C.3 0 **** -0.053
34588 C 56.1354 66.9498 162.526 C.3 0 **** -0.053
34589 C 52.7462 72.4561 164.708 C.3 0 **** -0.053
34590 C 53.4726 71.0489 164.907 C.3 0 **** 0
34591 C 53.0574 68.4538 164.563 C.3 0 **** 0.02
34592 C 52.4295 69.8873 164.68 C.3 0 **** 0
34593 C 51.1878 70.0801 165.583 C.3 0 **** -0.106
34594 C 50.7856 68.7591 166.176 C.3 0 **** -0.106
34595 C 50.6956 67.6991 165.084 C.3 0 **** -0.086
34596 C 51.9316 67.4579 164.298 C.2 0 **** 0.379
34597 O 52.0141 66.4806 163.574 O.2 0 **** -0.419
34598 H 56.8149 98.9465 166.357 H 0 **** 0.053
34599 H 57.8804 97.7816 167.138 H 0 **** 0.053
34600 H 56.8461 100.409 168.233 H 0 **** 0.053
34601 H 57.4114 98.9885 169.096 H 0 **** 0.053
34602 H 59.0406 101.261 167.861 H 0 **** 0.053
34603 H 61.1168 100.008 168.332 H 0 **** 0.053
34604 H 60.301 97.9851 166.523 H 0 **** 0.053
34605 H 60.782 99.6158 166.065 H 0 **** 0.053
34606 H 59.479 97.4973 168.675 H 0 **** 0.053
34607 H 58.737 98.3509 170.728 H 0 **** 0.053
34608 H 61.0934 100.261 170.671 H 0 **** 0.053
34609 H 59.8632 100.216 171.939 H 0 **** 0.053
34610 H 59.5005 101.95 170.008 H 0 **** 0.053
34611 H 58.117 100.961 170.46 H 0 **** 0.053
34612 H 61.1334 95.9515 172.043 H 0 **** 0.053
34613 H 62.7418 96.6033 170.575 H 0 **** 0.053
34614 H 61.8076 97.2112 167.989 H 0 **** 0.053
34615 H 62.3382 98.3235 169.258 H 0 **** 0.053
34616 H 58.8207 96.3206 170.067 H 0 **** 0.053
34617 H 62.1477 91.5409 167.537 H 0 **** 0.053
34618 H 61.7291 93.1267 166.836 H 0 **** 0.053
34619 H 64.1186 93.2039 167.616 H 0 **** 0.053
34620 H 63.6447 92.5058 169.173 H 0 **** 0.053
34621 H 64.0426 95.1466 169.064 H 0 **** 0.1268
34622 H 56.7374 95.7737 170.703 H 0 **** 0.053
34623 H 58.121 94.7989 175.073 H 0 **** 0.053
34624 H 57.734 96.5579 175.095 H 0 **** 0.053
34625 H 59.7308 96.2293 173.613 H 0 **** 0.1268
34626 H 55.7038 95.1405 176.049 H 0 **** 0.053
34627 H 54.945 96.4739 175.144 H 0 **** 0.053
34628 H 53.2547 94.673 175.381 H 0 **** 0.053
34629 H 54.4027 93.4683 174.759 H 0 **** 0.053
34630 H 54.7129 96.2967 170.49 H 0 **** 0.053
34631 H 54.5287 94.5624 170.231 H 0 **** 0.053
34632 H 52.4496 96.5603 171.22 H 0 **** 0.053
34633 H 52.2866 93.5063 171.054 H 0 **** 0.053
34634 H 50.8661 94.535 171.269 H 0 **** 0.053
34635 H 51.895 93.6283 173.448 H 0 **** 0.053
34636 H 51.6425 95.3919 173.385 H 0 **** 0.053
34637 H 55.327 92.9033 171.908 H 0 **** 0.053
34638 H 53.7314 87.8603 170.687 H 0 **** 0.053
34639 H 53.2007 85.6486 170.091 H 0 **** 0.053
34640 H 60.4143 88.5402 167.268 H 0 **** 0.053
34641 H 51.6591 80.969 167.668 H 0 **** 0.053
34642 H 51.2999 83.0647 168.591 H 0 **** 0.053
34643 H 52.7125 82.0122 171.076 H 0 **** 0.053
34644 H 50.2575 81.7435 171.128 H 0 **** 0.053
34645 H 49.6798 83.217 170.314 H 0 **** 0.053
34646 H 49.1256 81.7045 168.281 H 0 **** 0.053
34647 H 48.0941 81.4036 169.687 H 0 **** 0.053
34648 H 49.226 79.4146 170.276 H 0 **** 0.053
34649 H 51.4701 79.7012 170.402 H 0 **** 0.053
34650 H 51.6472 78.6286 167.563 H 0 **** 0.053
34651 H 52.6607 78.1997 168.963 H 0 **** 0.053
34652 H 50.6154 77.1443 169.999 H 0 **** 0.053
34653 H 51.0086 76.3613 168.471 H 0 **** 0.053
34654 H 48.4679 77.2358 169.024 H 0 **** 0.053
34655 H 49.0753 77.1991 167.376 H 0 **** 0.053
34656 H 49.3342 79.4541 167.381 H 0 **** 0.353
34657 H 63.0715 85.2312 166.611 H 0 **** 0.053
34658 H 62.9067 87.4711 165.544 H 0 **** 0.053
34659 H 60.3697 86.6703 164.087 H 0 **** 0.053
34660 H 61.485 87.9792 163.745 H 0 **** 0.053
34661 H 61.9615 86.4817 161.95 H 0 **** 0.053
34662 H 61.6167 85.0437 162.921 H 0 **** 0.053
34663 H 64.0664 86.8451 163.337 H 0 **** 0.053
34664 H 64.1203 85.3222 162.424 H 0 **** 0.053
34665 H 64.8485 85.3158 164.997 H 0 **** 0.053
34666 H 63.8333 83.9873 164.394 H 0 **** 0.053
34667 H 60.8908 82.1874 164.834 H 0 **** 0.053
34668 H 60.2906 79.8953 164.272 H 0 **** 0.053
34669 H 53.5094 79.4536 167.372 H 0 **** 0.053
34670 H 53.2327 76.9904 167.166 H 0 **** 0.053
34671 H 54.5846 75.1892 166.698 H 0 **** 0.053
34672 H 53.2368 75.2833 163.931 H 0 **** 0.053
34673 H 51.9272 74.9456 166.662 H 0 **** 0.053
34674 H 51.1154 74.4766 165.15 H 0 **** 0.053
34675 H 50.7966 76.9726 166.158 H 0 **** 0.053
34676 H 50.8122 76.6774 164.414 H 0 **** 0.053
34677 H 52.3342 78.6201 165.379 H 0 **** 0.053
34678 H 53.0671 77.5478 164.182 H 0 **** 0.053
34679 H 53.029 96.4704 168.765 H 0 **** 0.053
34680 H 52.1774 94.637 167.361 H 0 **** 0.053
34681 H 51.5792 93.7576 168.788 H 0 **** 0.053
34682 H 53.3275 93.951 168.527 H 0 **** 0.053
34683 H 50.876 97.3902 169.6 H 0 **** 0.053
34684 H 50.1384 95.7722 169.528 H 0 **** 0.053
34685 H 50.6575 96.5829 168.031 H 0 **** 0.053
34686 H 52.8829 84.2085 171.581 H 0 **** 0.41
34687 H 60.3421 76.3854 163.063 H 0 **** 0.053
34688 H 61.198 74.0656 162.243 H 0 **** 0.053
34689 H 60.795 71.5793 161.873 H 0 **** 0.053
34690 H 60.4229 69.0811 161.434 H 0 **** 0.053
34691 H 58.859 66.9583 161.701 H 0 **** 0.053
34692 H 54.256 66.1674 163.331 H 0 **** 0.053
34693 H 56.6174 65.946 162.478 H 0 **** 0.053
34694 H 51.8118 72.5155 165.375 H 0 **** 0.053
34695 H 51.3728 70.8314 166.37 H 0 **** 0.053
34696 H 50.4354 70.4817 164.906 H 0 **** 0.053
34697 H 49.8278 68.855 166.684 H 0 **** 0.053
34698 H 51.5303 68.4632 166.942 H 0 **** 0.053
34699 H 49.9692 67.9839 164.318 H 0 **** 0.053
34700 H 50.4754 66.6922 165.431 H 0 **** 0.053
34701 C 68.7378 81.1723 104.844 C.3 0 **** 0.054
34702 C 69.3923 81.038 106.249 C.3 0 **** -0.106
34703 C 70.6095 80.0727 106.209 C.3 0 **** -0.053
34704 C 70.258 78.8803 105.288 C.3 0 **** -0.053
34705 C 69.8918 79.3955 103.863 C.3 0 **** 0.054
34706 O 69.6474 80.7943 103.823 O.3 0 **** -0.32
34707 C 69.108 78.0261 105.898 C.3 0 **** -0.053
34708 C 69.1999 77.9184 107.468 C.3 0 **** 0.107
34709 C 70.6249 78.1844 107.938 C.3 0 **** -0.106
34710 C 71.0795 79.6171 107.613 C.3 0 **** -0.106
34711 O 68.8142 76.6437 107.994 O.3 0 **** -0.32
34712 C 67.6535 76.1611 107.336 C.3 0 **** 0.107
34713 C 68.0975 75.6448 105.941 C.3 0 **** -0.053
34714 C 69.0785 76.627 105.251 C.3 0 **** -0.106
34715 C 66.9745 75.2661 105.01 C.2 0 **** 0
34716 C 65.7056 76.0986 105.129 C.3 0 **** 0
34717 C 65.3552 76.578 106.537 C.3 0 **** 0
34718 C 66.4972 77.1584 107.362 C.3 0 **** -0.053
34719 C 64.0961 77.4181 106.618 C.3 0 **** 0
34720 C 62.9173 76.6873 105.984 C.3 0 **** 0
34721 C 63.3041 76.2966 104.509 C.3 0 **** 0.16
34722 C 64.5376 75.4236 104.439 C.3 0 **** 0
34723 C 64.8396 74.8893 103.012 C.3 0 **** -0.106
34724 C 65.8694 73.7926 103.237 C.3 0 **** -0.106
34725 C 67.0206 74.2342 104.134 C.2 0 **** -0.1268
34726 O 62.2747 75.8871 103.581 O.3 0 **** -0.32
34727 C 60.9995 75.8305 104.183 C.3 0 **** 0.16
34728 C 60.5783 77.0724 105.037 C.3 0 **** 0
34729 C 61.6552 77.5884 106.025 C.3 0 **** 0
34730 C 65.9919 77.4846 108.743 C.2 0 **** 0
34731 C 64.9935 78.6076 108.724 C.3 0 **** -0.053
34732 C 63.7667 77.9598 108.02 C.3 0 **** 0
34733 C 64.5178 79.1446 110.055 C.2 0 **** 0
34734 C 64.7308 78.3848 111.162 C.2 0 **** 0
34735 C 65.5667 77.113 111.165 C.3 0 **** -0.106
34736 C 66.257 76.7973 109.848 C.2 0 **** -0.1268
34737 C 64.3106 78.8712 112.529 C.3 0 **** -0.106
34738 C 63.0233 79.6733 112.404 C.3 0 **** -0.106
34739 C 63.166 80.6714 111.268 C.2 0 **** 0
34740 C 63.9143 80.3721 110.157 C.2 0 **** 0
34741 C 63.9852 81.3709 109.017 C.3 0 **** -0.106
34742 C 63.5505 82.7768 109.405 C.3 0 **** -0.053
34743 C 62.1892 82.7124 110.118 C.3 0 **** -0.106
34744 C 62.3312 81.9249 111.425 C.3 0 **** -0.106
34745 C 61.3083 77.9368 107.479 C.3 0 **** 0.147
34746 C 62.4406 78.7663 108.066 C.3 0 **** -0.053
34747 C 59.1593 77.0066 105.613 C.3 0 **** 0
34748 C 58.721 78.1887 106.487 C.3 0 **** 0.147
34749 S 59.7593 78.8392 107.774 S.3 0 **** -0.294
34750 C 57.2841 78.1536 106.929 C.3 0 **** -0.053
34751 C 56.3892 77.9939 105.693 C.3 0 **** 0
34752 C 56.7661 76.7127 104.855 C.3 0 **** 0
34753 C 58.231 76.8102 104.382 C.3 0 **** 0
34754 C 55.8328 76.6202 103.656 C.3 0 **** 0
34755 C 54.3993 76.5254 104.139 C.3 0 **** 0
34756 C 53.9549 77.7542 105.038 C.3 0 **** 0
34757 C 54.9381 77.8783 106.259 C.3 0 **** -0.053
34758 C 52.5205 77.4524 105.555 C.3 0 **** 0
34759 C 51.5991 77.5137 104.357 C.3 0 **** 0.16
34760 C 52.0027 76.5449 103.241 C.3 0 **** 0
34761 C 53.43 76.1133 103.066 C.3 0 **** 0
34762 C 58.6728 75.6632 103.434 C.3 0 **** 0
34763 C 60.1183 75.7858 102.961 C.3 0 **** -0.053
34764 C 56.2484 75.6852 102.499 C.3 0 **** 0
34765 C 57.6226 75.0114 102.494 C.3 0 **** 0
34766 C 53.8964 75.6329 101.691 C.3 0 **** 0
34767 C 55.1864 74.8039 101.835 C.3 0 **** 0
34768 C 50.9465 75.9441 102.313 C.3 0 **** 0
34769 C 51.5526 75.4963 100.945 C.3 0 **** 0
34770 C 52.8516 74.6771 101.059 C.3 0 **** 0
34771 O 50.2686 77.4077 104.815 O.3 0 **** -0.32
34772 C 49.9436 78.7628 105.122 C.3 0 **** 0.107
34773 C 51.0008 79.3661 106.102 C.3 0 **** -0.053
34774 C 51.859 78.2543 106.702 C.3 0 **** 0.107
34775 C 50.3121 80.1817 107.206 C.3 0 **** -0.106
34776 C 49.139 80.9842 106.614 C.3 0 **** -0.106
34777 C 47.9966 80.0388 106.198 C.3 0 **** 0.134
34778 C 48.5352 78.6815 105.672 C.3 0 **** -0.053
34779 C 47.5938 78.0456 104.619 C.3 0 **** -0.106
34780 C 46.1437 78.3504 104.972 C.3 0 **** -0.106
34781 C 45.8972 79.8897 105.008 C.3 0 **** 0.081
34782 N 47.1003 80.6814 105.258 N.3 0 **** -0.727
34783 C 58.0512 74.5355 101.08 C.3 0 **** 0.16
34784 C 56.9834 73.6024 100.531 C.3 0 **** 0.16
34785 C 55.7083 74.3828 100.388 C.3 0 **** 0
34786 O 57.3105 72.9868 99.3032 O.3 0 **** -0.32
34787 C 58.6118 72.4156 99.3839 C.3 0 **** 0.107
34788 C 59.6006 73.4928 99.7084 C.3 0 **** 0.107
34789 O 59.3312 73.9245 101.032 O.3 0 **** -0.32
34790 C 59.5437 74.668 98.6983 C.3 0 **** -0.106
34791 C 59.0595 74.2021 97.2951 C.3 0 **** -0.106
34792 C 59.5009 72.7475 97.0381 C.3 0 **** -0.106
34793 C 58.8632 71.7556 98.0517 C.3 0 **** -0.106
34794 C 53.324 74.2104 99.6108 C.3 0 **** 0
34795 C 54.6583 73.4111 99.7563 C.3 0 **** -0.053
34796 C 50.5237 74.6085 100.225 C.3 0 **** 0
34797 C 51.0431 74.088 98.8692 C.3 0 **** 0.16
34798 C 52.301 73.3138 98.9372 C.3 0 **** -0.053
34799 C 49.2377 75.5065 100.04 C.3 0 **** 0
34800 C 48.6886 75.9834 101.446 C.3 0 **** 0
34801 C 49.7588 76.9092 102.045 C.3 0 **** -0.053
34802 O 50.1339 73.36 98.11 O.3 0 **** -0.32
34803 C 48.8869 74.0462 98.0908 C.3 0 **** 0.16
34804 C 48.2512 74.4888 99.4759 C.3 0 **** 0
34805 C 47.3158 76.7117 101.409 C.3 0 **** -0.053
34806 C 46.3317 75.8901 100.579 C.3 0 **** -0.053
34807 C 46.9461 75.2677 99.2695 C.3 0 **** 0
34808 C 45.2463 76.7627 100.048 C.3 0 **** -0.053
34809 C 44.8207 77.7753 101.078 C.3 0 **** -0.106
34810 C 45.9786 78.7967 101.269 C.3 0 **** -0.106
34811 C 47.3499 78.1783 100.927 C.3 0 **** -0.106
34812 C 45.953 74.3132 98.6499 C.3 0 **** 0
34813 C 46.4861 73.6142 97.3642 C.3 0 **** 0
34814 C 47.9372 73.1408 97.356 C.3 0 **** 0
34815 C 44.1574 75.7531 99.694 C.3 0 **** 0
34816 C 44.5964 74.9529 98.4541 C.3 0 **** 0
34817 C 63.5857 83.7467 108.196 C.3 0 **** -0.053
34818 C 62.4395 83.5116 107.201 C.3 0 **** -0.159
34819 C 63.5946 85.2096 108.654 C.3 0 **** -0.159
34820 O 52.7522 78.7763 107.676 O.3 0 **** -0.57
34821 C 48.4489 72.0465 96.3767 C.3 0 **** -0.053
34822 C 47.508 71.7018 95.2177 C.3 0 **** -0.053
34823 C 46.0551 71.618 95.7215 C.3 0 **** 0
34824 C 45.5428 72.9308 96.3919 C.3 0 **** 0
34825 C 44.0819 73.0904 96.7753 C.3 0 **** 0
34826 C 43.0914 72.2264 96.0506 C.3 0 **** 0
34827 C 43.6348 71.3152 94.9214 C.3 0 **** 0
34828 C 45.136 71.2601 94.5483 C.3 0 **** -0.053
34829 C 42.6421 70.5878 94.0248 C.3 0 **** -0.053
34830 C 41.1504 70.9757 94.1255 C.3 0 **** -0.053
34831 C 40.6737 71.7048 95.4203 C.3 0 **** 0
34832 C 41.6566 72.7951 95.9236 C.3 0 **** 0
34833 C 41.1864 73.4279 97.2914 C.3 0 **** 0
34834 C 42.21 74.5279 97.7652 C.3 0 **** 0
34835 C 43.6042 73.9051 97.9826 C.3 0 **** 0
34836 C 39.7632 74.0426 97.1016 C.3 0 **** 0
34837 C 38.7867 72.9059 96.619 C.3 0 **** -0.053
34838 C 39.2492 72.2743 95.2914 C.3 0 **** -0.053
34839 C 42.758 76.3652 99.4784 C.3 0 **** -0.053
34840 C 41.7768 75.1492 99.1535 C.3 0 **** 0
34841 C 39.2593 74.6596 98.4847 C.3 0 **** 0.02
34842 C 40.2944 75.6819 99.0733 C.3 0 **** 0
34843 C 39.9196 76.4589 100.358 C.3 0 **** -0.106
34844 C 38.5319 76.078 100.791 C.3 0 **** -0.106
34845 C 37.5698 76.174 99.612 C.3 0 **** -0.086
34846 C 37.8938 75.3395 98.4278 C.2 0 **** 0.379
34847 O 37.0645 75.1806 97.5486 O.2 0 **** -0.419
34848 H 68.4515 82.2134 104.642 H 0 **** 0.053
34849 H 67.812 80.579 104.787 H 0 **** 0.053
34850 H 69.7279 82.0187 106.64 H 0 **** 0.053
34851 H 68.6442 80.6796 106.98 H 0 **** 0.053
34852 H 71.4307 80.625 105.724 H 0 **** 0.053
34853 H 71.1442 78.2215 105.23 H 0 **** 0.053
34854 H 69.0293 78.8442 103.45 H 0 **** 0.053
34855 H 70.7265 79.2227 103.175 H 0 **** 0.053
34856 H 68.1687 78.5347 105.62 H 0 **** 0.053
34857 H 68.5627 78.6976 107.925 H 0 **** 0.053
34858 H 71.2831 77.443 107.447 H 0 **** 0.053
34859 H 70.6843 77.9821 109.019 H 0 **** 0.053
34860 H 72.1744 79.6747 107.685 H 0 **** 0.053
34861 H 70.6824 80.3009 108.377 H 0 **** 0.053
34862 H 67.3401 75.2726 107.888 H 0 **** 0.053
34863 H 68.6543 74.7177 106.118 H 0 **** 0.053
34864 H 68.9053 76.7214 104.156 H 0 **** 0.053
34865 H 70.093 76.2051 105.361 H 0 **** 0.053
34866 H 66.7773 78.1192 106.904 H 0 **** 0.053
34867 H 63.9149 74.4841 102.555 H 0 **** 0.053
34868 H 65.2041 75.6992 102.346 H 0 **** 0.053
34869 H 66.2454 73.4108 102.285 H 0 **** 0.053
34870 H 65.3598 72.9557 103.749 H 0 **** 0.053
34871 H 67.9273 73.6495 104.014 H 0 **** 0.1268
34872 H 65.3884 79.4326 108.083 H 0 **** 0.053
34873 H 64.9305 76.2305 111.474 H 0 **** 0.053
34874 H 66.365 77.2075 111.955 H 0 **** 0.053
34875 H 66.9519 75.9627 109.858 H 0 **** 0.1268
34876 H 64.1969 78.0289 113.246 H 0 **** 0.053
34877 H 65.1219 79.5141 112.915 H 0 **** 0.053
34878 H 62.7725 80.1785 113.358 H 0 **** 0.053
34879 H 62.1798 78.9946 112.173 H 0 **** 0.053
34880 H 65.0248 81.4206 108.66 H 0 **** 0.053
34881 H 63.3821 81.0259 108.155 H 0 **** 0.053
34882 H 64.293 83.1535 110.139 H 0 **** 0.053
34883 H 61.4577 82.212 109.464 H 0 **** 0.053
34884 H 61.793 83.7153 110.329 H 0 **** 0.053
34885 H 61.3222 81.6751 111.828 H 0 **** 0.053
34886 H 62.8201 82.5723 112.187 H 0 **** 0.053
34887 H 62.1516 79.0901 109.125 H 0 **** 0.053
34888 H 56.9484 79.0169 107.579 H 0 **** 0.053
34889 H 54.7399 78.8645 106.788 H 0 **** 0.053
34890 H 60.4757 74.9283 102.319 H 0 **** 0.053
34891 H 49.9303 79.339 104.181 H 0 **** 0.053
34892 H 51.652 80.0744 105.549 H 0 **** 0.053
34893 H 51.2004 77.5391 107.175 H 0 **** 0.053
34894 H 49.9282 79.4936 107.991 H 0 **** 0.053
34895 H 51.0536 80.8435 107.709 H 0 **** 0.053
34896 H 49.5228 81.5277 105.735 H 0 **** 0.053
34897 H 48.7659 81.7434 107.319 H 0 **** 0.053
34898 H 47.4134 79.8203 107.107 H 0 **** 0.053
34899 H 48.6055 77.9823 106.53 H 0 **** 0.053
34900 H 47.804 78.5146 103.646 H 0 **** 0.053
34901 H 47.7894 76.9633 104.52 H 0 **** 0.053
34902 H 45.9413 77.9012 105.961 H 0 **** 0.053
34903 H 45.4475 77.8597 104.27 H 0 **** 0.053
34904 H 45.1611 80.123 105.794 H 0 **** 0.053
34905 H 45.4382 80.2252 104.062 H 0 **** 0.053
34906 H 47.5905 80.846 104.402 H 0 **** 0.353
34907 H 58.6042 71.695 100.201 H 0 **** 0.053
34908 H 60.606 73.0799 99.6935 H 0 **** 0.053
34909 H 58.8694 75.4802 99.0435 H 0 **** 0.053
34910 H 60.5355 75.1582 98.6022 H 0 **** 0.053
34911 H 59.4369 74.8801 96.5028 H 0 **** 0.053
34912 H 57.9538 74.2628 97.2428 H 0 **** 0.053
34913 H 60.5983 72.7081 97.1497 H 0 **** 0.053
34914 H 59.2697 72.4407 96.0017 H 0 **** 0.053
34915 H 59.4793 70.841 98.1337 H 0 **** 0.053
34916 H 57.8698 71.4318 97.6648 H 0 **** 0.053
34917 H 54.9911 73.0765 98.714 H 0 **** 0.053
34918 H 52.6788 72.9404 97.9622 H 0 **** 0.053
34919 H 49.3376 77.3221 103.005 H 0 **** 0.053
34920 H 46.9929 76.7138 102.441 H 0 **** 0.053
34921 H 45.9387 75.0757 101.219 H 0 **** 0.053
34922 H 45.5563 77.306 99.1299 H 0 **** 0.053
34923 H 44.6086 77.2445 102.025 H 0 **** 0.053
34924 H 43.8961 78.3322 100.811 H 0 **** 0.053
34925 H 45.9935 79.1511 102.319 H 0 **** 0.053
34926 H 45.7911 79.6935 100.648 H 0 **** 0.053
34927 H 48.1589 78.7651 101.398 H 0 **** 0.053
34928 H 47.5328 78.201 99.8453 H 0 **** 0.053
34929 H 64.538 83.5676 107.661 H 0 **** 0.053
34930 H 62.566 84.1369 106.303 H 0 **** 0.053
34931 H 61.4683 83.769 107.655 H 0 **** 0.053
34932 H 62.3834 82.463 106.868 H 0 **** 0.053
34933 H 64.4451 85.4123 109.325 H 0 **** 0.053
34934 H 62.6708 85.4574 109.2 H 0 **** 0.053
34935 H 63.6743 85.894 107.796 H 0 **** 0.053
34936 H 53.2469 78.0258 108 H 0 **** 0.41
34937 H 49.5556 72.0444 96.1668 H 0 **** 0.053
34938 H 47.8352 70.7658 94.6851 H 0 **** 0.053
34939 H 45.4221 70.3163 94.0075 H 0 **** 0.053
34940 H 43.0137 69.866 93.2537 H 0 **** 0.053
34941 H 40.4232 70.2913 93.6212 H 0 **** 0.053
34942 H 37.7266 73.2616 96.5151 H 0 **** 0.053
34943 H 38.5411 71.5094 94.8961 H 0 **** 0.053
34944 H 42.3986 76.9229 100.417 H 0 **** 0.053
34945 H 40.652 76.283 101.165 H 0 **** 0.053
34946 H 39.9936 77.5035 100.059 H 0 **** 0.053
34947 H 38.2013 76.7292 101.598 H 0 **** 0.053
34948 H 38.548 75.0453 101.194 H 0 **** 0.053
34949 H 37.5513 77.1867 99.2012 H 0 **** 0.053
34950 H 36.5516 75.8503 99.8165 H 0 **** 0.053
34951 C 1.37564 84.7883 97.7692 C.3 0 **** 0.054
34952 C 0.889309 83.4391 97.1658 C.3 0 **** -0.106
34953 C 0.332205 82.5 98.2715 C.3 0 **** -0.053
34954 C 1.23575 82.627 99.5216 C.3 0 **** -0.053
34955 C 1.27997 84.1091 100.001 C.3 0 **** 0.054
34956 O 0.778565 85.0213 99.0342 O.3 0 **** -0.32
34957 C 2.66411 82.078 99.2329 C.3 0 **** -0.053
34958 C 2.6495 80.814 98.291 C.3 0 **** 0.107
34959 C 1.29036 80.1269 98.3422 C.3 0 **** -0.106
34960 C 0.168124 81.0315 97.8065 C.3 0 **** -0.106
34961 O 3.63334 79.8261 98.617 O.3 0 **** -0.32
34962 C 4.87403 80.4394 98.9301 C.3 0 **** 0.107
34963 C 4.74569 81.0326 100.359 C.3 0 **** -0.053
34964 C 3.39721 81.7721 100.554 C.3 0 **** -0.106
34965 C 5.8994 81.8959 100.801 C.2 0 **** 0
34966 C 6.56911 82.7176 99.7084 C.3 0 **** 0
34967 C 6.63553 82.0615 98.3299 C.3 0 **** 0
34968 C 5.36224 81.386 97.8357 C.3 0 **** -0.053
34969 C 7.29281 82.9125 97.2615 C.3 0 **** 0
34970 C 8.67532 83.372 97.7115 C.3 0 **** 0
34971 C 8.53156 84.1172 99.0911 C.3 0 **** 0.16
34972 C 7.91363 83.2476 100.164 C.3 0 **** 0
34973 C 7.91657 83.9029 101.572 C.3 0 **** -0.106
34974 C 7.58927 82.7555 102.516 C.3 0 **** -0.106
34975 C 6.37924 81.944 102.066 C.2 0 **** -0.1268
34976 O 9.62087 84.9271 99.5862 O.3 0 **** -0.32
34977 C 10.7511 84.8832 98.7418 C.3 0 **** 0.16
34978 C 10.4873 85.0996 97.2145 C.3 0 **** 0
34979 C 9.3039 84.2885 96.629 C.3 0 **** 0
34980 C 5.63995 80.7152 96.5155 C.2 0 **** 0
34981 C 5.92816 81.7134 95.4298 C.3 0 **** -0.053
34982 C 7.30944 82.2891 95.8549 C.3 0 **** 0
34983 C 6.07263 81.1898 94.0181 C.2 0 **** 0
34984 C 6.28275 79.8578 93.8509 C.2 0 **** 0
34985 C 6.21017 78.8423 94.9819 C.3 0 **** -0.106
34986 C 5.76835 79.4075 96.3218 C.2 0 **** -0.1268
34987 C 6.40555 79.2597 92.4686 C.3 0 **** -0.106
34988 C 7.10501 80.2525 91.5516 C.3 0 **** -0.106
34989 C 6.46711 81.6207 91.7191 C.2 0 **** 0
34990 C 5.96832 82.022 92.9329 C.2 0 **** 0
34991 C 5.39209 83.4181 93.0751 C.3 0 **** -0.106
34992 C 5.05333 84.0805 91.7475 C.3 0 **** -0.053
34993 C 6.2627 83.9786 90.8025 C.3 0 **** -0.106
34994 C 6.54915 82.5051 90.4932 C.3 0 **** -0.106
34995 C 9.43414 83.5226 95.3061 C.3 0 **** 0.147
34996 C 8.04104 83.1699 94.806 C.3 0 **** -0.053
34997 C 11.7459 85.1199 96.3401 C.3 0 **** 0
34998 C 11.5271 85.2941 94.832 C.3 0 **** 0.147
34999 S 10.3118 84.3479 93.9461 S.3 0 **** -0.294
35000 C 12.7849 85.4353 94.02 C.3 0 **** -0.053
35001 C 13.6289 86.5732 94.6097 C.3 0 **** 0
35002 C 13.9511 86.3378 96.1352 C.3 0 **** 0
35003 C 12.6374 86.2439 96.9381 C.3 0 **** 0
35004 C 14.794 87.499 96.6422 C.3 0 **** 0
35005 C 16.0796 87.5765 95.8433 C.3 0 **** 0
35006 C 15.8424 87.76 94.2854 C.3 0 **** 0
35007 C 14.9406 86.583 93.7618 C.3 0 **** -0.053
35008 C 17.2341 87.6935 93.5962 C.3 0 **** 0
35009 C 17.9889 88.9382 94.0088 C.3 0 **** 0.16
35010 C 18.1276 89.0784 95.5277 C.3 0 **** 0
35011 C 17.1168 88.4742 96.4592 C.3 0 **** 0
35012 C 12.8346 86.1446 98.4743 C.3 0 **** 0
35013 C 11.5251 86.071 99.2534 C.3 0 **** -0.053
35014 C 14.9047 87.6856 98.1717 C.3 0 **** 0
35015 C 14.0644 86.8331 99.1256 C.3 0 **** 0
35016 C 16.9512 89.0649 97.8596 C.3 0 **** 0
35017 C 16.2632 88.0414 98.7822 C.3 0 **** 0
35018 C 19.3366 89.79 96.1364 C.3 0 **** 0
35019 C 19.0339 90.3468 97.5642 C.3 0 **** 0
35020 C 18.3333 89.3478 98.5033 C.3 0 **** 0
35021 O 19.1911 88.9925 93.2719 O.3 0 **** -0.32
35022 C 18.7833 89.6487 92.0722 C.3 0 **** 0.107
35023 C 17.5723 88.8998 91.428 C.3 0 **** -0.053
35024 C 17.4029 87.5231 92.0671 C.3 0 **** 0.107
35025 C 17.7573 88.7781 89.9083 C.3 0 **** -0.106
35026 C 18.3552 90.0803 89.3447 C.3 0 **** -0.106
35027 C 19.8173 90.2423 89.8012 C.3 0 **** 0.134
35028 C 20.0406 89.6752 91.2289 C.3 0 **** -0.053
35029 C 21.168 90.4199 91.9861 C.3 0 **** -0.106
35030 C 22.2636 90.8278 91.0096 C.3 0 **** -0.106
35031 C 21.6931 91.764 89.901 C.3 0 **** 0.081
35032 N 20.2562 91.6178 89.6765 N.3 0 **** -0.727
35033 C 13.9287 87.4691 100.535 C.3 0 **** 0.16
35034 C 15.3193 87.7122 101.101 C.3 0 **** 0.16
35035 C 16.0192 88.7017 100.214 C.3 0 **** 0
35036 O 15.3434 88.1639 102.438 O.3 0 **** -0.32
35037 C 14.5141 87.3314 103.241 C.3 0 **** 0.107
35038 C 13.1168 87.3655 102.703 C.3 0 **** 0.107
35039 O 13.1375 86.7174 101.442 O.3 0 **** -0.32
35040 C 12.5616 88.8095 102.597 C.3 0 **** -0.106
35041 C 13.2067 89.7561 103.65 C.3 0 **** -0.106
35042 C 13.5652 88.9657 104.924 C.3 0 **** -0.106
35043 C 14.625 87.8619 104.648 C.3 0 **** -0.106
35044 C 18.1556 89.9997 99.9464 C.3 0 **** 0
35045 C 17.4138 88.9777 100.866 C.3 0 **** -0.053
35046 C 20.3659 90.7302 98.2298 C.3 0 **** 0
35047 C 20.1765 91.2662 99.6622 C.3 0 **** 0.16
35048 C 19.4872 90.3444 100.588 C.3 0 **** -0.053
35049 C 21.0158 91.821 97.2902 C.3 0 **** 0
35050 C 21.2555 91.2317 95.8398 C.3 0 **** 0
35051 C 19.8667 90.9478 95.2466 C.3 0 **** -0.053
35052 O 21.3255 91.7255 100.293 O.3 0 **** -0.32
35053 C 22.0485 92.5622 99.3979 C.3 0 **** 0.16
35054 C 22.3785 92.0005 97.9517 C.3 0 **** 0
35055 C 22.0664 92.1461 94.8794 C.3 0 **** -0.053
35056 C 23.3264 92.6339 95.5916 C.3 0 **** -0.053
35057 C 23.1058 93.0452 97.0959 C.3 0 **** 0
35058 C 23.8134 93.9005 94.975 C.3 0 **** -0.053
35059 C 23.6716 93.8562 93.4765 C.3 0 **** -0.106
35060 C 22.1564 93.8992 93.1263 C.3 0 **** -0.106
35061 C 21.2883 93.3312 94.2679 C.3 0 **** -0.106
35062 C 24.4423 93.3023 97.751 C.3 0 **** 0
35063 C 24.3259 93.684 99.2566 C.3 0 **** 0
35064 C 23.3258 92.9088 100.112 C.3 0 **** 0
35065 C 25.2622 93.9615 95.452 C.3 0 **** 0
35066 C 25.2834 94.2787 96.9585 C.3 0 **** 0
35067 C 4.52209 85.5243 91.9422 C.3 0 **** -0.053
35068 C 5.62211 86.525 92.3257 C.3 0 **** -0.159
35069 C 3.77306 86.015 90.6977 C.3 0 **** -0.159
35070 O 16.3747 86.788 91.4173 O.3 0 **** -0.57
35071 C 23.4285 92.8529 101.663 C.3 0 **** -0.053
35072 C 24.4099 93.8398 102.304 C.3 0 **** -0.053
35073 C 25.7068 93.9116 101.476 C.3 0 **** 0
35074 C 25.4842 94.3356 99.9902 C.3 0 **** 0
35075 C 26.6627 94.6442 99.0827 C.3 0 **** 0
35076 C 27.9507 95.0298 99.7498 C.3 0 **** 0
35077 C 27.9401 95.1641 101.293 C.3 0 **** 0
35078 C 26.6729 94.8983 102.142 C.3 0 **** -0.053
35079 C 29.1592 95.7577 101.986 C.3 0 **** -0.053
35080 C 30.2463 96.4162 101.108 C.3 0 **** -0.053
35081 C 30.294 96.0291 99.5971 C.3 0 **** 0
35082 C 28.8968 95.9401 98.9288 C.3 0 **** 0
35083 C 28.9876 95.4435 97.4331 C.3 0 **** 0
35084 C 27.5496 95.3679 96.7937 C.3 0 **** 0
35085 C 26.6676 94.372 97.5743 C.3 0 **** 0
35086 C 29.899 96.4241 96.6284 C.3 0 **** 0
35087 C 31.3148 96.4692 97.315 C.3 0 **** -0.053
35088 C 31.23 96.9383 98.7803 C.3 0 **** -0.053
35089 C 26.1541 94.9518 94.6751 C.3 0 **** -0.053
35090 C 27.6154 94.8357 95.3059 C.3 0 **** 0
35091 C 30.0277 95.9178 95.1201 C.3 0 **** 0.02
35092 C 28.62 95.7083 94.4588 C.3 0 **** 0
35093 C 28.5555 95.3228 92.9619 C.3 0 **** -0.106
35094 C 29.9467 95.2584 92.3974 C.3 0 **** -0.106
35095 C 30.7188 96.5222 92.7588 C.3 0 **** -0.086
35096 C 30.8568 96.8171 94.2071 C.2 0 **** 0.379
35097 O 31.6462 97.6659 94.585 O.2 0 **** -0.419
35098 H 1.09115 85.6317 97.1255 H 0 **** 0.053
35099 H 2.47416 84.8089 97.841 H 0 **** 0.053
35100 H 0.103904 83.5927 96.3999 H 0 **** 0.053
35101 H 1.72018 82.9455 96.6283 H 0 **** 0.053
35102 H -0.658739 82.8956 98.5474 H 0 **** 0.053
35103 H 0.80751 81.9895 100.317 H 0 **** 0.053
35104 H 2.30038 84.3983 100.307 H 0 **** 0.053
35105 H 0.644991 84.2376 100.884 H 0 **** 0.053
35106 H 3.21226 82.8977 98.7371 H 0 **** 0.053
35107 H 2.80454 81.1365 97.245 H 0 **** 0.053
35108 H 1.09777 79.8442 99.3945 H 0 **** 0.053
35109 H 1.34884 79.1846 97.7748 H 0 **** 0.053
35110 H -0.80333 80.6359 98.1335 H 0 **** 0.053
35111 H 0.166821 80.9887 96.7081 H 0 **** 0.053
35112 H 5.5993 79.6279 99.0172 H 0 **** 0.053
35113 H 4.73907 80.1805 101.048 H 0 **** 0.053
35114 H 3.49141 82.7017 101.157 H 0 **** 0.053
35115 H 2.73915 81.1009 101.134 H 0 **** 0.053
35116 H 4.62948 82.1803 97.6269 H 0 **** 0.053
35117 H 8.91591 84.3289 101.789 H 0 **** 0.053
35118 H 7.1866 84.7369 101.631 H 0 **** 0.053
35119 H 7.45392 83.1188 103.537 H 0 **** 0.053
35120 H 8.45699 82.0701 102.522 H 0 **** 0.053
35121 H 5.89523 81.3889 102.864 H 0 **** 0.1268
35122 H 5.16443 82.5271 95.4736 H 0 **** 0.053
35123 H 7.20878 78.3263 95.1057 H 0 **** 0.053
35124 H 5.47972 78.0335 94.6949 H 0 **** 0.053
35125 H 5.59457 78.6855 97.1143 H 0 **** 0.1268
35126 H 6.93636 78.2832 92.4912 H 0 **** 0.053
35127 H 5.38247 79.0609 92.102 H 0 **** 0.053
35128 H 7.06975 79.9159 90.4965 H 0 **** 0.053
35129 H 8.17504 80.3263 91.8253 H 0 **** 0.053
35130 H 4.46967 83.3564 93.6715 H 0 **** 0.053
35131 H 6.08142 84.0709 93.6449 H 0 **** 0.053
35132 H 4.22703 83.4941 91.2954 H 0 **** 0.053
35133 H 7.14286 84.4315 91.2863 H 0 **** 0.053
35134 H 6.09659 84.5295 89.8657 H 0 **** 0.053
35135 H 7.54742 82.4075 90.0062 H 0 **** 0.053
35136 H 5.80354 82.1388 89.752 H 0 **** 0.053
35137 H 8.13164 82.6644 93.7836 H 0 **** 0.053
35138 H 12.6388 85.5595 92.9051 H 0 **** 0.053
35139 H 14.6128 86.82 92.6998 H 0 **** 0.053
35140 H 11.6492 85.9379 100.368 H 0 **** 0.053
35141 H 18.4957 90.6838 92.3225 H 0 **** 0.053
35142 H 16.648 89.4933 91.5847 H 0 **** 0.053
35143 H 18.3367 86.9878 91.9656 H 0 **** 0.053
35144 H 18.4426 87.9316 89.6847 H 0 **** 0.053
35145 H 16.7853 88.5266 89.4254 H 0 **** 0.053
35146 H 17.7428 90.9148 89.7245 H 0 **** 0.053
35147 H 18.2944 90.1157 88.2456 H 0 **** 0.053
35148 H 20.436 89.6391 89.1172 H 0 **** 0.053
35149 H 20.341 88.6113 91.1339 H 0 **** 0.053
35150 H 20.7423 91.341 92.4109 H 0 **** 0.053
35151 H 21.5494 89.8081 92.8225 H 0 **** 0.053
35152 H 22.6724 89.9027 90.564 H 0 **** 0.053
35153 H 23.1082 91.3094 91.5315 H 0 **** 0.053
35154 H 22.2128 91.5632 88.9504 H 0 **** 0.053
35155 H 21.912 92.8187 90.1428 H 0 **** 0.053
35156 H 19.7444 92.1807 90.3265 H 0 **** 0.353
35157 H 14.8922 86.3127 103.158 H 0 **** 0.053
35158 H 12.4612 86.7961 103.357 H 0 **** 0.053
35159 H 12.731 89.2471 101.591 H 0 **** 0.053
35160 H 11.4578 88.8211 102.718 H 0 **** 0.053
35161 H 12.532 90.6047 103.883 H 0 **** 0.053
35162 H 14.1275 90.2089 103.23 H 0 **** 0.053
35163 H 12.6411 88.4837 105.288 H 0 **** 0.053
35164 H 13.9139 89.6427 105.725 H 0 **** 0.053
35165 H 14.5604 87.0672 105.415 H 0 **** 0.053
35166 H 15.6426 88.3061 104.741 H 0 **** 0.053
35167 H 17.2906 89.45 101.901 H 0 **** 0.053
35168 H 19.3463 90.7252 101.62 H 0 **** 0.053
35169 H 20.0246 90.6126 94.1827 H 0 **** 0.053
35170 H 22.3495 91.4884 94.0688 H 0 **** 0.053
35171 H 24.0831 91.8265 95.5424 H 0 **** 0.053
35172 H 23.2641 94.789 95.353 H 0 **** 0.053
35173 H 24.1301 92.9191 93.1079 H 0 **** 0.053
35174 H 24.1825 94.6904 92.9482 H 0 **** 0.053
35175 H 21.9694 93.3133 92.2041 H 0 **** 0.053
35176 H 21.8564 94.9389 92.8933 H 0 **** 0.053
35177 H 20.2958 93.0382 93.8804 H 0 **** 0.053
35178 H 21.112 94.0891 95.0424 H 0 **** 0.053
35179 H 3.78992 85.4943 92.7715 H 0 **** 0.053
35180 H 5.18945 87.5087 92.5684 H 0 **** 0.053
35181 H 6.33016 86.6667 91.4929 H 0 **** 0.053
35182 H 6.20189 86.1942 93.2023 H 0 **** 0.053
35183 H 2.94201 85.3392 90.4399 H 0 **** 0.053
35184 H 4.44601 86.0672 89.8274 H 0 **** 0.053
35185 H 3.35042 87.0187 90.8587 H 0 **** 0.053
35186 H 16.3316 85.9489 91.8721 H 0 **** 0.41
35187 H 22.4774 92.6231 102.221 H 0 **** 0.053
35188 H 24.6004 93.5893 103.385 H 0 **** 0.053
35189 H 26.9028 94.6647 103.218 H 0 **** 0.053
35190 H 29.2012 95.7938 103.104 H 0 **** 0.053
35191 H 31.2179 96.6478 101.611 H 0 **** 0.053
35192 H 32.0461 97.1135 96.7569 H 0 **** 0.053
35193 H 32.2262 97.0395 99.2699 H 0 **** 0.053
35194 H 26.1857 94.6932 93.5553 H 0 **** 0.053
35195 H 28.0194 94.3691 92.8123 H 0 **** 0.053
35196 H 27.9587 96.1167 92.5155 H 0 **** 0.053
35197 H 29.9049 95.1417 91.3159 H 0 **** 0.053
35198 H 30.4608 94.362 92.7998 H 0 **** 0.053
35199 H 30.2169 97.4132 92.373 H 0 **** 0.053
35200 H 31.7612 96.534 92.4483 H 0 **** 0.053
35201 C 76.9776 -1.91791 160.739 C.3 0 **** 0.054
35202 C 76.4021 -1.69807 159.31 C.3 0 **** -0.106
35203 C 77.5419 -1.55437 158.264 C.3 0 **** -0.053
35204 C 78.6781 -0.711531 158.891 C.3 0 **** -0.053
35205 C 79.1864 -1.38895 160.199 C.3 0 **** 0.054
35206 O 78.3103 -2.39871 160.68 O.3 0 **** -0.32
35207 C 78.2071 0.749735 159.151 C.3 0 **** -0.053
35208 C 77.2415 1.28566 158.026 C.3 0 **** 0.107
35209 C 77.4367 0.497966 156.736 C.3 0 **** -0.106
35210 C 77.0622 -0.983849 156.905 C.3 0 **** -0.106
35211 O 77.4226 2.66948 157.706 O.3 0 **** -0.32
35212 C 77.6013 3.43697 158.886 C.3 0 **** 0.107
35213 C 79.0495 3.18488 159.384 C.3 0 **** -0.053
35214 C 79.4235 1.68156 159.324 C.3 0 **** -0.106
35215 C 79.3728 3.76393 160.738 C.2 0 **** 0
35216 C 78.2298 3.77804 161.743 C.3 0 **** 0
35217 C 76.837 4.01607 161.161 C.3 0 **** 0
35218 C 76.4817 3.23167 159.905 C.3 0 **** -0.053
35219 C 75.7197 4.00771 162.186 C.3 0 **** 0
35220 C 76.0131 4.99135 163.313 C.3 0 **** 0
35221 C 77.4188 4.64151 163.931 C.3 0 **** 0.16
35222 C 78.5348 4.6936 162.911 C.3 0 **** 0
35223 C 79.9489 4.51775 163.529 C.3 0 **** -0.106
35224 C 80.895 4.94551 162.417 C.3 0 **** -0.106
35225 C 80.5727 4.29097 161.079 C.2 0 **** -0.1268
35226 O 77.8008 5.1996 165.208 O.3 0 **** -0.32
35227 C 76.8268 6.08211 165.722 C.3 0 **** 0.16
35228 C 75.3481 5.57038 165.709 C.3 0 **** 0
35229 C 74.8871 4.92258 164.378 C.3 0 **** 0
35230 C 75.1213 3.664 159.424 C.2 0 **** 0
35231 C 74.034 3.26424 160.381 C.3 0 **** -0.053
35232 C 74.3057 4.18364 161.606 C.3 0 **** 0
35233 C 72.6021 3.49652 159.951 C.2 0 **** 0
35234 C 72.3779 4.34855 158.917 C.2 0 **** 0
35235 C 73.4859 4.94754 158.064 C.3 0 **** -0.106
35236 C 74.8813 4.4334 158.369 C.2 0 **** -0.1268
35237 C 70.976 4.60299 158.412 C.3 0 **** -0.106
35238 C 70.0071 4.57322 159.586 C.3 0 **** -0.106
35239 C 70.2841 3.34146 160.43 C.2 0 **** 0
35240 C 71.5586 2.85035 160.563 C.2 0 **** 0
35241 C 71.8041 1.65344 161.463 C.3 0 **** -0.106
35242 C 70.5439 0.869714 161.8 C.3 0 **** -0.053
35243 C 69.4591 1.83792 162.302 C.3 0 **** -0.106
35244 C 69.0802 2.81039 161.179 C.3 0 **** -0.106
35245 C 73.539 5.27858 163.739 C.3 0 **** 0.147
35246 C 73.1997 4.2247 162.695 C.3 0 **** -0.053
35247 C 74.3307 6.52499 166.343 C.3 0 **** 0
35248 C 72.8642 6.07616 166.317 C.3 0 **** 0.147
35249 S 72.1056 5.43488 164.844 S.3 0 **** -0.294
35250 C 71.9115 6.97314 167.059 C.3 0 **** -0.053
35251 C 72.4255 7.16437 168.492 C.3 0 **** 0
35252 C 73.8952 7.7352 168.519 C.3 0 **** 0
35253 C 74.8464 6.7643 167.79 C.3 0 **** 0
35254 C 74.3276 7.90409 169.968 C.3 0 **** 0
35255 C 73.3831 8.85992 170.669 C.3 0 **** 0
35256 C 71.8699 8.38461 170.64 C.3 0 **** 0
35257 C 71.4278 8.17216 169.146 C.3 0 **** -0.053
35258 C 71.018 9.51785 171.277 C.3 0 **** 0
35259 C 71.3694 9.55768 172.749 C.3 0 **** 0.16
35260 C 72.8641 9.77684 173.001 C.3 0 **** 0
35261 C 73.8937 9.34285 171.999 C.3 0 **** 0
35262 C 76.345 7.1599 167.869 C.3 0 **** 0
35263 C 77.2726 6.17912 167.159 C.3 0 **** -0.053
35264 C 75.8371 8.07688 170.247 C.3 0 **** 0
35265 C 76.8623 7.91825 169.122 C.3 0 **** 0
35266 C 75.3184 9.05689 172.474 C.3 0 **** 0
35267 C 76.2901 9.11244 171.28 C.3 0 **** 0
35268 C 73.3421 10.5009 174.261 C.3 0 **** 0
35269 C 74.8093 10.1201 174.637 C.3 0 **** 0
35270 C 75.7998 10.1537 173.458 C.3 0 **** 0
35271 O 70.496 10.4623 173.389 O.3 0 **** -0.32
35272 C 69.3707 9.63796 173.689 C.3 0 **** 0.107
35273 C 68.8567 8.9277 172.396 C.3 0 **** -0.053
35274 C 69.4759 9.57312 171.158 C.3 0 **** 0.107
35275 C 67.3231 8.97247 172.326 C.3 0 **** -0.106
35276 C 66.7258 8.73716 173.726 C.3 0 **** -0.106
35277 C 67.0086 9.94337 174.641 C.3 0 **** 0.134
35278 C 68.3844 10.5916 174.33 C.3 0 **** -0.053
35279 C 69.0206 11.2462 175.581 C.3 0 **** -0.106
35280 C 67.9311 11.8494 176.459 C.3 0 **** -0.106
35281 C 66.9228 10.7523 176.918 C.3 0 **** 0.081
35282 N 66.8677 9.58589 176.038 N.3 0 **** -0.727
35283 C 78.2938 7.63528 169.651 C.3 0 **** 0.16
35284 C 78.6955 8.75139 170.603 C.3 0 **** 0.16
35285 C 77.7572 8.72771 171.775 C.3 0 **** 0
35286 O 80.0314 8.69105 171.055 O.3 0 **** -0.32
35287 C 80.9064 8.51411 169.946 C.3 0 **** 0.107
35288 C 80.5396 7.25141 169.229 C.3 0 **** 0.107
35289 O 79.2691 7.4604 168.635 O.3 0 **** -0.32
35290 C 80.5379 6.0189 170.17 C.3 0 **** -0.106
35291 C 81.5301 6.19449 171.355 C.3 0 **** -0.106
35292 C 82.7318 7.05541 170.918 C.3 0 **** -0.106
35293 C 82.3033 8.49446 170.513 C.3 0 **** -0.106
35294 C 77.2701 9.83054 173.981 C.3 0 **** 0
35295 C 78.2451 9.83988 172.76 C.3 0 **** -0.053
35296 C 75.3201 11.1258 175.682 C.3 0 **** 0
35297 C 76.7791 10.8513 176.099 C.3 0 **** 0.16
35298 C 77.7566 10.8544 174.99 C.3 0 **** -0.053
35299 C 74.3386 11.0006 176.913 C.3 0 **** 0
35300 C 72.8556 11.342 176.476 C.3 0 **** 0
35301 C 72.4254 10.2457 175.489 C.3 0 **** -0.053
35302 O 77.2811 11.657 177.114 O.3 0 **** -0.32
35303 C 76.326 11.7326 178.166 C.3 0 **** 0.16
35304 C 74.8366 12.138 177.799 C.3 0 **** 0
35305 C 71.8291 11.4432 177.638 C.3 0 **** -0.053
35306 C 72.3981 12.3384 178.737 C.3 0 **** -0.053
35307 C 73.9278 12.1113 179.034 C.3 0 **** 0
35308 C 71.7606 12.0217 180.046 C.3 0 **** -0.053
35309 C 70.2891 11.752 179.875 C.3 0 **** -0.106
35310 C 70.1234 10.4066 179.111 C.3 0 **** -0.106
35311 C 71.3455 10.0982 178.222 C.3 0 **** -0.106
35312 C 74.4246 13.1845 179.974 C.3 0 **** 0
35313 C 75.9433 13.0665 180.299 C.3 0 **** 0
35314 C 76.8929 12.7103 179.158 C.3 0 **** 0
35315 C 72.0626 13.2715 180.869 C.3 0 **** 0
35316 C 73.5633 13.2978 181.212 C.3 0 **** 0
35317 C 70.8375 -0.307665 162.765 C.3 0 **** -0.053
35318 C 71.1126 0.147828 164.206 C.3 0 **** -0.159
35319 C 69.7042 -1.34011 162.745 C.3 0 **** -0.159
35320 O 68.9349 9.00972 169.97 O.3 0 **** -0.57
35321 C 78.4163 13.0149 179.22 C.3 0 **** -0.053
35322 C 78.9604 13.4045 180.598 C.3 0 **** -0.053
35323 C 77.9867 14.3664 181.302 C.3 0 **** 0
35324 C 76.5503 13.7869 181.488 C.3 0 **** 0
35325 C 75.5169 14.5225 182.323 C.3 0 **** 0
35326 C 76.0354 15.4848 183.351 C.3 0 **** 0
35327 C 77.5722 15.5915 183.516 C.3 0 **** 0
35328 C 78.5577 14.7485 182.671 C.3 0 **** -0.053
35329 C 78.129 16.3852 184.69 C.3 0 **** -0.053
35330 C 77.1442 16.8693 185.777 C.3 0 **** -0.053
35331 C 75.629 16.9348 185.412 C.3 0 **** 0
35332 C 75.1303 15.721 184.585 C.3 0 **** 0
35333 C 73.6224 15.8837 184.147 C.3 0 **** 0
35334 C 73.1576 14.6317 183.311 C.3 0 **** 0
35335 C 74.0118 14.4923 182.034 C.3 0 **** 0
35336 C 72.7402 16.0529 185.425 C.3 0 **** 0
35337 C 73.2539 17.3071 186.225 C.3 0 **** -0.053
35338 C 74.7304 17.1605 186.641 C.3 0 **** -0.053
35339 C 71.2106 13.4224 182.146 C.3 0 **** -0.053
35340 C 71.6594 14.7927 182.83 C.3 0 **** 0
35341 C 71.2149 16.2514 184.998 C.3 0 **** 0.02
35342 C 70.7211 15.0922 184.063 C.3 0 **** 0
35343 C 69.2332 15.0654 183.639 C.3 0 **** -0.106
35344 C 68.5053 16.2117 184.283 C.3 0 **** -0.106
35345 C 68.8043 16.2505 185.778 C.3 0 **** -0.086
35346 C 70.2329 16.3809 186.159 C.2 0 **** 0.379
35347 O 70.5354 16.6506 187.309 O.2 0 **** -0.419
35348 H 76.3942 -2.67115 161.286 H 0 **** 0.053
35349 H 76.9182 -0.990348 161.329 H 0 **** 0.053
35350 H 75.7395 -2.53105 159.003 H 0 **** 0.053
35351 H 75.7568 -0.800102 159.298 H 0 **** 0.053
35352 H 77.944 -2.56715 158.099 H 0 **** 0.053
35353 H 79.5025 -0.651242 158.157 H 0 **** 0.053
35354 H 79.376 -0.640013 160.988 H 0 **** 0.053
35355 H 80.1423 -1.89153 160.015 H 0 **** 0.053
35356 H 77.6707 0.730659 160.116 H 0 **** 0.053
35357 H 76.1931 1.12898 158.34 H 0 **** 0.053
35358 H 78.4968 0.603046 156.438 H 0 **** 0.053
35359 H 76.8423 0.971716 155.939 H 0 **** 0.053
35360 H 77.4923 -1.56316 156.077 H 0 **** 0.053
35361 H 75.971 -1.0893 156.824 H 0 **** 0.053
35362 H 77.5799 4.48275 158.573 H 0 **** 0.053
35363 H 79.7122 3.70145 158.681 H 0 **** 0.053
35364 H 80.0345 1.34771 160.191 H 0 **** 0.053
35365 H 80.0601 1.53994 158.433 H 0 **** 0.053
35366 H 76.382 2.17452 160.194 H 0 **** 0.053
35367 H 80.0564 5.16751 164.42 H 0 **** 0.053
35368 H 80.1154 3.47313 163.865 H 0 **** 0.053
35369 H 81.9345 4.7598 162.699 H 0 **** 0.053
35370 H 80.7803 6.03696 162.282 H 0 **** 0.053
35371 H 81.4078 4.26156 160.385 H 0 **** 0.1268
35372 H 74.189 2.19966 160.682 H 0 **** 0.053
35373 H 73.4744 6.07517 158.141 H 0 **** 0.053
35374 H 73.279 4.71123 156.986 H 0 **** 0.053
35375 H 75.6683 4.75093 157.691 H 0 **** 0.1268
35376 H 70.9098 5.56204 157.854 H 0 **** 0.053
35377 H 70.7296 3.79761 157.697 H 0 **** 0.053
35378 H 68.9554 4.59687 159.237 H 0 **** 0.053
35379 H 70.1527 5.47223 160.215 H 0 **** 0.053
35380 H 72.5046 0.973461 160.956 H 0 **** 0.053
35381 H 72.3042 1.96382 162.401 H 0 **** 0.053
35382 H 70.1787 0.422832 160.852 H 0 **** 0.053
35383 H 69.846 2.40347 163.164 H 0 **** 0.053
35384 H 68.5633 1.30318 162.648 H 0 **** 0.053
35385 H 68.4754 3.65021 161.594 H 0 **** 0.053
35386 H 68.4241 2.28404 160.45 H 0 **** 0.053
35387 H 72.1613 4.44628 162.269 H 0 **** 0.053
35388 H 70.8253 6.65677 167.044 H 0 **** 0.053
35389 H 70.4188 7.64931 169.136 H 0 **** 0.053
35390 H 78.3606 6.48185 167.154 H 0 **** 0.053
35391 H 69.68 8.88549 174.434 H 0 **** 0.053
35392 H 69.1377 7.8548 172.429 H 0 **** 0.053
35393 H 69.25 10.6301 171.181 H 0 **** 0.053
35394 H 66.9978 9.96679 171.95 H 0 **** 0.053
35395 H 66.9533 8.22461 171.588 H 0 **** 0.053
35396 H 67.1972 7.82882 174.136 H 0 **** 0.053
35397 H 65.643 8.54065 173.68 H 0 **** 0.053
35398 H 66.2404 10.7019 174.419 H 0 **** 0.053
35399 H 68.227 11.3877 173.573 H 0 **** 0.053
35400 H 69.5166 10.4562 176.164 H 0 **** 0.053
35401 H 69.7895 11.9834 175.29 H 0 **** 0.053
35402 H 67.4164 12.6249 175.863 H 0 **** 0.053
35403 H 68.3607 12.3744 177.329 H 0 **** 0.053
35404 H 65.9122 11.1871 176.977 H 0 **** 0.053
35405 H 67.1637 10.4174 177.942 H 0 **** 0.053
35406 H 67.5882 8.93496 176.28 H 0 **** 0.353
35407 H 80.7527 9.35394 169.269 H 0 **** 0.053
35408 H 81.2521 7.0675 168.429 H 0 **** 0.053
35409 H 79.5298 5.81906 170.591 H 0 **** 0.053
35410 H 80.79 5.09232 169.612 H 0 **** 0.053
35411 H 81.8634 5.20908 171.739 H 0 **** 0.053
35412 H 81.0151 6.69036 172.203 H 0 **** 0.053
35413 H 83.1905 6.56541 170.041 H 0 **** 0.053
35414 H 83.5027 7.09106 171.709 H 0 **** 0.053
35415 H 83.0511 8.94093 169.832 H 0 **** 0.053
35416 H 82.2855 9.13589 171.424 H 0 **** 0.053
35417 H 79.2991 9.60968 173.141 H 0 **** 0.053
35418 H 78.8076 10.6547 175.285 H 0 **** 0.053
35419 H 71.342 10.4312 175.241 H 0 **** 0.053
35420 H 70.9741 11.9313 177.191 H 0 **** 0.053
35421 H 72.2385 13.3929 178.438 H 0 **** 0.053
35422 H 72.2241 11.1385 180.536 H 0 **** 0.053
35423 H 69.8446 12.5846 179.297 H 0 **** 0.053
35424 H 69.7252 11.6903 180.831 H 0 **** 0.053
35425 H 69.2155 10.4465 178.477 H 0 **** 0.053
35426 H 69.9546 9.58552 179.834 H 0 **** 0.053
35427 H 71.0718 9.36551 177.441 H 0 **** 0.053
35428 H 72.1547 9.64441 178.809 H 0 **** 0.053
35429 H 71.7472 -0.816441 162.393 H 0 **** 0.053
35430 H 71.4304 -0.701667 164.831 H 0 **** 0.053
35431 H 70.2052 0.577759 164.66 H 0 **** 0.053
35432 H 71.905 0.911497 164.259 H 0 **** 0.053
35433 H 69.5303 -1.72227 161.727 H 0 **** 0.053
35434 H 68.7615 -0.897809 163.104 H 0 **** 0.053
35435 H 69.9402 -2.20094 163.39 H 0 **** 0.053
35436 H 69.3699 9.46196 169.25 H 0 **** 0.41
35437 H 79.0775 12.3899 178.556 H 0 **** 0.053
35438 H 80.004 13.8194 180.528 H 0 **** 0.053
35439 H 79.5907 15.19 182.633 H 0 **** 0.053
35440 H 79.2342 16.5374 184.784 H 0 **** 0.053
35441 H 77.5344 17.6271 186.501 H 0 **** 0.053
35442 H 72.6291 17.5274 187.132 H 0 **** 0.053
35443 H 75.1 18.0078 187.264 H 0 **** 0.053
35444 H 70.0887 13.4548 181.897 H 0 **** 0.053
35445 H 69.1244 15.09 182.541 H 0 **** 0.053
35446 H 68.8817 14.0963 183.99 H 0 **** 0.053
35447 H 67.4339 16.1125 184.118 H 0 **** 0.053
35448 H 68.8205 17.159 183.801 H 0 **** 0.053
35449 H 68.5043 15.3182 186.263 H 0 **** 0.053
35450 H 68.3721 17.0911 186.316 H 0 **** 0.053
35451 C 20.7463 33.3735 134.088 C.3 0 **** 0.054
35452 C 19.4664 34.172 134.469 C.3 0 **** -0.106
35453 C 18.286 33.2151 134.795 C.3 0 **** -0.053
35454 C 18.3193 32.0383 133.79 C.3 0 **** -0.053
35455 C 19.6904 31.3025 133.874 C.3 0 **** 0.054
35456 O 20.6774 32.0441 134.577 O.3 0 **** -0.32
35457 C 18.0259 32.5343 132.343 C.3 0 **** -0.053
35458 C 16.9506 33.6863 132.303 C.3 0 **** 0.107
35459 C 16.0874 33.6536 133.559 C.3 0 **** -0.106
35460 C 16.9097 33.9251 134.829 C.3 0 **** -0.106
35461 O 16.0639 33.6246 131.181 O.3 0 **** -0.32
35462 C 16.7772 33.3042 129.997 C.3 0 **** 0.107
35463 C 17.0955 31.786 130.048 C.3 0 **** -0.053
35464 C 17.6015 31.3528 131.448 C.3 0 **** -0.106
35465 C 18.0189 31.2868 128.967 C.2 0 **** 0
35466 C 19.0976 32.261 128.514 C.3 0 **** 0
35467 C 18.7009 33.7368 128.511 C.3 0 **** 0
35468 C 17.9535 34.2432 129.739 C.3 0 **** -0.053
35469 C 19.8024 34.6811 128.072 C.3 0 **** 0
35470 C 20.3616 34.2656 126.716 C.3 0 **** 0
35471 C 20.835 32.7666 126.807 C.3 0 **** 0.16
35472 C 19.7196 31.8249 127.203 C.3 0 **** 0
35473 C 20.1195 30.3255 127.135 C.3 0 **** -0.106
35474 C 18.7945 29.5836 127.225 C.3 0 **** -0.106
35475 C 17.9152 30.0758 128.37 C.2 0 **** -0.1268
35476 O 21.6872 32.22 125.776 O.3 0 **** -0.32
35477 C 21.9419 33.1455 124.741 C.3 0 **** 0.16
35478 C 22.3773 34.5821 125.182 C.3 0 **** 0
35479 C 21.5254 35.2097 126.314 C.3 0 **** 0
35480 C 17.5612 35.6812 129.519 C.2 0 **** 0
35481 C 18.7594 36.5865 129.464 C.3 0 **** -0.053
35482 C 19.4358 36.1745 128.125 C.3 0 **** 0
35483 C 18.5084 38.0769 129.403 C.2 0 **** 0
35484 C 17.2652 38.4998 129.054 C.2 0 **** 0
35485 C 16.0716 37.5703 128.889 C.3 0 **** -0.106
35486 C 16.3352 36.1193 129.256 C.2 0 **** -0.1268
35487 C 16.9334 39.9732 129.002 C.3 0 **** -0.106
35488 C 18.1533 40.7467 128.523 C.3 0 **** -0.106
35489 C 19.3738 40.283 129.299 C.2 0 **** 0
35490 C 19.4913 38.9808 129.715 C.2 0 **** 0
35491 C 20.7518 38.5417 130.436 C.3 0 **** -0.106
35492 C 21.5787 39.6955 130.985 C.3 0 **** -0.053
35493 C 21.8038 40.736 129.875 C.3 0 **** -0.106
35494 C 20.457 41.33 129.448 C.3 0 **** -0.106
35495 C 21.0209 36.6559 126.229 C.3 0 **** 0.147
35496 C 20.5732 37.1001 127.614 C.3 0 **** -0.053
35497 C 22.7168 35.5351 124.031 C.3 0 **** 0
35498 C 23.1143 36.964 124.422 C.3 0 **** 0.147
35499 S 22.1764 37.9083 125.599 S.3 0 **** -0.294
35500 C 23.5598 37.8337 123.279 C.3 0 **** -0.053
35501 C 24.6843 37.1156 122.521 C.3 0 **** 0
35502 C 24.2384 35.6887 122.019 C.3 0 **** 0
35503 C 23.8322 34.8148 123.224 C.3 0 **** 0
35504 C 25.3995 35.0471 121.273 C.3 0 **** 0
35505 C 25.7852 35.9179 120.094 C.3 0 **** 0
35506 C 26.1976 37.3926 120.509 C.3 0 **** 0
35507 C 25.0159 38.0486 121.313 C.3 0 **** -0.053
35508 C 26.4384 38.1904 119.197 C.3 0 **** 0
35509 C 27.6852 37.6192 118.558 C.3 0 **** 0.16
35510 C 27.5818 36.1161 118.283 C.3 0 **** 0
35511 C 26.697 35.2331 119.114 C.3 0 **** 0
35512 C 23.5009 33.3427 122.861 C.3 0 **** 0
35513 C 23.1185 32.489 124.065 C.3 0 **** -0.053
35514 C 25.3362 33.5227 121.031 C.3 0 **** 0
35515 C 24.2278 32.6765 121.662 C.3 0 **** 0
35516 C 27.0124 33.7399 119.205 C.3 0 **** 0
35517 C 25.7632 32.9673 119.669 C.3 0 **** 0
35518 C 28.3366 35.4857 117.112 C.3 0 **** 0
35519 C 28.5958 33.9614 117.331 C.3 0 **** 0
35520 C 27.3662 33.1668 117.809 C.3 0 **** 0
35521 O 28.0262 38.4268 117.452 O.3 0 **** -0.32
35522 C 28.8159 39.4509 118.055 C.3 0 **** 0.107
35523 C 28.0308 40.1227 119.228 C.3 0 **** -0.053
35524 C 26.5553 39.7335 119.166 C.3 0 **** 0.107
35525 C 28.1959 41.649 119.185 C.3 0 **** -0.106
35526 C 29.6438 42.0117 118.807 C.3 0 **** -0.106
35527 C 29.922 41.6506 117.336 C.3 0 **** 0.134
35528 C 29.1555 40.3721 116.903 C.3 0 **** -0.053
35529 C 29.906 39.5837 115.801 C.3 0 **** -0.106
35530 C 30.6187 40.5533 114.867 C.3 0 **** -0.106
35531 C 31.6441 41.4244 115.655 C.3 0 **** 0.081
35532 N 31.3451 41.5572 117.079 N.3 0 **** -0.727
35533 C 24.5904 31.1684 121.728 C.3 0 **** 0.16
35534 C 24.9196 30.6795 120.326 C.3 0 **** 0.16
35535 C 26.1308 31.4245 119.843 C.3 0 **** 0
35536 O 25.136 29.2885 120.22 O.3 0 **** -0.32
35537 C 24.0745 28.5866 120.858 C.3 0 **** 0.107
35538 C 24.0103 28.9979 122.297 C.3 0 **** 0.107
35539 O 23.5954 30.3533 122.327 O.3 0 **** -0.32
35540 C 25.3626 28.7942 123.028 C.3 0 **** -0.106
35541 C 26.1943 27.6405 122.397 C.3 0 **** -0.106
35542 C 25.2544 26.5637 121.819 C.3 0 **** -0.106
35543 C 24.3676 27.1195 120.669 C.3 0 **** -0.106
35544 C 27.7326 31.6197 117.915 C.3 0 **** 0
35545 C 26.4778 30.8456 118.432 C.3 0 **** -0.053
35546 C 29.0365 33.3455 115.993 C.3 0 **** 0
35547 C 29.29 31.8281 116.099 C.3 0 **** 0.16
35548 C 28.138 31.0342 116.575 C.3 0 **** -0.053
35549 C 30.3494 34.1186 115.577 C.3 0 **** 0
35550 C 30.0543 35.6661 115.419 C.3 0 **** 0
35551 C 29.6899 36.1891 116.817 C.3 0 **** -0.053
35552 O 29.7877 31.2155 114.955 O.3 0 **** -0.32
35553 C 30.853 32.0001 114.431 C.3 0 **** 0.16
35554 C 30.5956 33.5462 114.185 C.3 0 **** 0
35555 C 31.2198 36.5051 114.824 C.3 0 **** -0.053
35556 C 31.7451 35.818 113.565 C.3 0 **** -0.053
35557 C 31.8603 34.2515 113.679 C.3 0 **** 0
35558 C 33.1523 36.2303 113.298 C.3 0 **** -0.053
35559 C 33.345 37.6958 113.585 C.3 0 **** -0.106
35560 C 33.2416 37.9112 115.123 C.3 0 **** -0.106
35561 C 32.3753 36.827 115.796 C.3 0 **** -0.106
35562 C 32.1811 33.669 112.323 C.3 0 **** 0
35563 C 32.2765 32.1143 112.324 C.3 0 **** 0
35564 C 31.2507 31.3348 113.142 C.3 0 **** 0
35565 C 33.3266 35.8665 111.826 C.3 0 **** 0
35566 C 33.3831 34.3339 111.689 C.3 0 **** 0
35567 C 22.8828 39.1999 131.662 C.3 0 **** -0.053
35568 C 23.9431 38.7289 130.656 C.3 0 **** -0.159
35569 C 23.4724 40.271 132.587 C.3 0 **** -0.159
35570 O 25.8092 40.4228 120.16 O.3 0 **** -0.57
35571 C 30.9351 29.8376 112.868 C.3 0 **** -0.053
35572 C 31.9226 29.108 111.952 C.3 0 **** -0.053
35573 C 32.3172 30.006 110.767 C.3 0 **** 0
35574 C 32.9512 31.3669 111.189 C.3 0 **** 0
35575 C 33.5575 32.2948 110.152 C.3 0 **** 0
35576 C 34.0089 31.6693 108.865 C.3 0 **** 0
35577 C 33.8472 30.135 108.719 C.3 0 **** 0
35578 C 33.2962 29.2513 109.863 C.3 0 **** -0.053
35579 C 34.5145 29.4375 107.542 C.3 0 **** -0.053
35580 C 35.417 30.2732 106.61 C.3 0 **** -0.053
35581 C 35.3186 31.828 106.678 C.3 0 **** 0
35582 C 35.1588 32.3865 108.116 C.3 0 **** 0
35583 C 34.9392 33.95 108.12 C.3 0 **** 0
35584 C 34.7806 34.4762 109.597 C.3 0 **** 0
35585 C 33.5564 33.8232 110.27 C.3 0 **** 0
35586 C 36.1568 34.6319 107.419 C.3 0 **** 0
35587 C 36.2764 34.0623 105.955 C.3 0 **** -0.053
35588 C 36.4743 32.5337 105.945 C.3 0 **** -0.053
35589 C 34.5464 36.5181 111.142 C.3 0 **** -0.053
35590 C 34.5232 36.0365 109.621 C.3 0 **** 0
35591 C 35.9372 36.2128 107.386 C.3 0 **** 0.02
35592 C 35.655 36.7875 108.819 C.3 0 **** 0
35593 C 35.525 38.3198 108.989 C.3 0 **** -0.106
35594 C 35.7466 38.9949 107.665 C.3 0 **** -0.106
35595 C 37.0229 38.4717 107.016 C.3 0 **** -0.086
35596 C 37.0824 37.0095 106.767 C.2 0 **** 0.379
35597 O 37.9538 36.546 106.051 O.2 0 **** -0.419
35598 H 21.6407 33.8284 134.535 H 0 **** 0.053
35599 H 20.9028 33.3863 132.998 H 0 **** 0.053
35600 H 19.6405 34.8326 135.341 H 0 **** 0.053
35601 H 19.1885 34.8545 133.645 H 0 **** 0.053
35602 H 18.4912 32.7943 135.792 H 0 **** 0.053
35603 H 17.5038 31.3407 134.056 H 0 **** 0.053
35604 H 20.0586 31.0305 132.87 H 0 **** 0.053
35605 H 19.5794 30.3628 134.427 H 0 **** 0.053
35606 H 18.9847 32.9143 131.95 H 0 **** 0.053
35607 H 17.4646 34.6651 132.295 H 0 **** 0.053
35608 H 15.6062 32.6584 133.608 H 0 **** 0.053
35609 H 15.2722 34.3858 133.446 H 0 **** 0.053
35610 H 16.3365 33.5997 135.708 H 0 **** 0.053
35611 H 17.0549 35.0093 134.937 H 0 **** 0.053
35612 H 16.0685 33.424 129.175 H 0 **** 0.053
35613 H 16.1455 31.2653 129.883 H 0 **** 0.053
35614 H 18.4189 30.6 131.405 H 0 **** 0.053
35615 H 16.7586 30.8547 131.959 H 0 **** 0.053
35616 H 18.6653 34.2452 130.578 H 0 **** 0.053
35617 H 20.6335 30.1138 126.177 H 0 **** 0.053
35618 H 20.8247 30.0584 127.949 H 0 **** 0.053
35619 H 18.9571 28.5055 127.298 H 0 **** 0.053
35620 H 18.242 29.7706 126.286 H 0 **** 0.053
35621 H 17.1724 29.3566 128.7 H 0 **** 0.1268
35622 H 19.4429 36.335 130.311 H 0 **** 0.053
35623 H 15.6819 37.6219 127.829 H 0 **** 0.053
35624 H 15.2321 37.941 129.543 H 0 **** 0.053
35625 H 15.4721 35.4601 129.261 H 0 **** 0.1268
35626 H 16.0482 40.1707 128.359 H 0 **** 0.053
35627 H 16.6634 40.2876 130.026 H 0 **** 0.053
35628 H 17.9996 41.8392 128.625 H 0 **** 0.053
35629 H 18.3235 40.5497 127.447 H 0 **** 0.053
35630 H 20.4652 37.8953 131.279 H 0 **** 0.053
35631 H 21.3853 37.919 129.775 H 0 **** 0.053
35632 H 20.9715 40.1799 131.778 H 0 **** 0.053
35633 H 22.2825 40.2491 129.01 H 0 **** 0.053
35634 H 22.4786 41.5407 130.2 H 0 **** 0.053
35635 H 20.5798 41.9041 128.5 H 0 **** 0.053
35636 H 20.1248 42.064 130.216 H 0 **** 0.053
35637 H 20.2663 38.2014 127.569 H 0 **** 0.053
35638 H 23.8515 38.892 123.552 H 0 **** 0.053
35639 H 25.3838 39.0204 121.773 H 0 **** 0.053
35640 H 22.8161 31.4305 123.814 H 0 **** 0.053
35641 H 29.7447 38.9944 118.437 H 0 **** 0.053
35642 H 28.4584 39.7879 120.195 H 0 **** 0.053
35643 H 26.1766 40.0043 118.19 H 0 **** 0.053
35644 H 27.5005 42.0764 118.43 H 0 **** 0.053
35645 H 27.9012 42.0911 120.165 H 0 **** 0.053
35646 H 30.3108 41.4391 119.473 H 0 **** 0.053
35647 H 29.8574 43.0777 118.984 H 0 **** 0.053
35648 H 29.5335 42.4797 116.723 H 0 **** 0.053
35649 H 28.174 40.6827 116.489 H 0 **** 0.053
35650 H 30.6751 38.966 116.287 H 0 **** 0.053
35651 H 29.218 38.9055 115.266 H 0 **** 0.053
35652 H 29.847 41.1908 114.398 H 0 **** 0.053
35653 H 31.1141 40.0211 114.037 H 0 **** 0.053
35654 H 31.6803 42.4337 115.214 H 0 **** 0.053
35655 H 32.662 41.0127 115.539 H 0 **** 0.053
35656 H 31.7149 40.7772 117.585 H 0 **** 0.353
35657 H 23.1455 28.8835 120.371 H 0 **** 0.053
35658 H 23.2543 28.4092 122.81 H 0 **** 0.053
35659 H 25.9842 29.7145 123.015 H 0 **** 0.053
35660 H 25.2039 28.5867 124.107 H 0 **** 0.053
35661 H 26.892 27.2051 123.141 H 0 **** 0.053
35662 H 26.8323 28.0429 121.584 H 0 **** 0.053
35663 H 24.5967 26.2228 122.637 H 0 **** 0.053
35664 H 25.8256 25.6829 121.473 H 0 **** 0.053
35665 H 23.4526 26.5083 120.559 H 0 **** 0.053
35666 H 24.923 27.0283 119.707 H 0 **** 0.053
35667 H 26.746 29.7356 118.504 H 0 **** 0.053
35668 H 28.3168 29.9417 116.655 H 0 **** 0.053
35669 H 29.5652 37.3054 116.729 H 0 **** 0.053
35670 H 30.7541 37.4415 114.549 H 0 **** 0.053
35671 H 31.0678 36.073 112.727 H 0 **** 0.053
35672 H 33.8807 35.6547 113.908 H 0 **** 0.053
35673 H 32.5551 38.2639 113.059 H 0 **** 0.053
35674 H 34.3182 38.1023 113.234 H 0 **** 0.053
35675 H 32.8014 38.9069 115.332 H 0 **** 0.053
35676 H 34.2555 37.9267 115.567 H 0 **** 0.053
35677 H 32.021 37.1816 116.781 H 0 **** 0.053
35678 H 32.9592 35.9161 115.982 H 0 **** 0.053
35679 H 22.6133 38.3345 132.297 H 0 **** 0.053
35680 H 24.8034 38.2777 131.175 H 0 **** 0.053
35681 H 24.3191 39.5754 130.058 H 0 **** 0.053
35682 H 23.5494 37.9758 129.954 H 0 **** 0.053
35683 H 22.7443 40.5808 133.354 H 0 **** 0.053
35684 H 23.7627 41.1677 132.017 H 0 **** 0.053
35685 H 24.3675 39.897 133.108 H 0 **** 0.053
35686 H 24.9071 40.1259 120.056 H 0 **** 0.41
35687 H 30.4921 29.2568 113.725 H 0 **** 0.053
35688 H 31.5226 28.1091 111.626 H 0 **** 0.053
35689 H 32.9111 28.2613 109.498 H 0 **** 0.053
35690 H 34.336 28.3465 107.367 H 0 **** 0.053
35691 H 35.7107 29.807 105.64 H 0 **** 0.053
35692 H 37.0987 34.5509 105.367 H 0 **** 0.053
35693 H 36.6239 32.1142 104.924 H 0 **** 0.053
35694 H 34.4886 37.6653 111.194 H 0 **** 0.053
35695 H 34.547 38.5975 109.42 H 0 **** 0.053
35696 H 36.295 38.5657 109.719 H 0 **** 0.053
35697 H 35.8112 40.0728 107.802 H 0 **** 0.053
35698 H 34.8726 38.8045 107.009 H 0 **** 0.053
35699 H 37.8903 38.6478 107.657 H 0 **** 0.053
35700 H 37.2283 38.8567 106.019 H 0 **** 0.053
35701 C 127.152 80.8222 175.442 C.2 0 **** 0
35702 C 126.51 79.6304 175.143 C.2 0 **** 0
35703 C 125.625 79.5686 174.079 C.2 0 **** 0
35704 C 125.406 80.6933 173.322 C.2 0 **** 0
35705 C 126.087 81.8762 173.583 C.2 0 **** 0
35706 C 126.97 81.9353 174.641 C.2 0 **** 0
35707 C 124.427 80.6634 172.166 C.3 0 **** -0.106
35708 C 123.57 79.4203 171.966 C.2 0 **** 0
35709 C 123.782 78.2969 172.715 C.2 0 **** 0
35710 C 124.9 78.2652 173.755 C.3 0 **** -0.106
35711 C 122.962 77.1793 172.528 C.2 0 **** 0
35712 C 121.895 77.2134 171.652 C.2 0 **** 0
35713 C 121.744 78.3158 170.819 C.2 0 **** 0
35714 C 122.567 79.4363 170.981 C.2 0 **** 0
35715 C 122.379 80.5587 170.189 C.2 0 **** -0.1268
35716 C 121.329 80.7239 169.31 C.2 0 **** 0
35717 C 120.417 79.6105 169.278 C.2 0 **** 0
35718 C 120.761 78.3766 169.836 C.2 0 **** 0.042
35719 C 119.149 79.6898 168.404 C.3 0 **** 0
35720 C 118.927 80.9456 167.557 C.3 0 **** 0
35721 C 120.072 81.9762 167.49 C.2 0 **** 0
35722 C 121.201 81.8695 168.367 C.2 0 **** 0
35723 C 117.445 81.3308 167.362 C.3 0 **** -0.106
35724 C 116.661 81.2792 168.677 C.3 0 **** -0.053
35725 C 116.666 79.8479 169.295 C.3 0 **** -0.053
35726 C 117.84 78.964 168.798 C.3 0 **** -0.106
35727 C 122.227 82.8154 168.17 C.2 0 **** 0.042
35728 C 122.115 83.792 167.204 C.2 0 **** 0.052
35729 C 121.018 83.8456 166.357 C.2 0 **** 0.052
35730 C 120.033 82.9002 166.462 C.2 0 **** 0.042
35731 C 120.874 84.8954 165.286 C.2 0 **** 0.367
35732 C 121.981 85.8922 165.18 C.2 0 **** 0
35733 C 123.049 85.8376 165.984 C.2 0 **** 0
35734 C 123.211 84.8143 167.045 C.2 0 **** 0.367
35735 C 124.16 86.858 165.878 C.3 0 **** -0.106
35736 C 123.548 88.2333 165.511 C.3 0 **** -0.106
35737 C 122.661 88.1241 164.271 C.2 0 **** 0
35738 C 121.868 86.9647 164.111 C.2 0 **** 0.2405
35739 N 121.04 86.8043 163.058 N.2 0 **** -0.481
35740 C 120.91 87.8155 162.205 C.2 0 **** 0.2405
35741 C 121.696 88.9877 162.294 C.2 0 **** 0
35742 C 122.582 89.1231 163.332 C.2 0 **** 0
35743 C 123.438 90.3741 163.49 C.3 0 **** -0.106
35744 C 123.491 91.2236 162.214 C.3 0 **** -0.106
35745 C 122.096 91.3796 161.618 C.3 0 **** -0.106
35746 C 121.56 90.0016 161.185 C.3 0 **** -0.053
35747 C 120.08 90.0887 160.727 C.3 0 **** -0.106
35748 C 119.564 88.7112 160.407 C.2 0 **** 0
35749 C 119.97 87.6106 161.164 C.2 0 **** 0
35750 C 119.437 86.3413 160.875 C.2 0 **** -0.1268
35751 C 118.501 86.2059 159.869 C.2 0 **** -0.1268
35752 C 118.062 87.2989 159.142 C.2 0 **** 0
35753 C 118.586 88.559 159.429 C.2 0 **** 0
35754 C 127.756 83.1942 174.906 C.3 0 **** -0.106
35755 C 126.939 84.1917 175.754 C.3 0 **** -0.159
35756 C 128.051 80.893 176.649 C.3 0 **** -0.159
35757 C 125.805 83.0654 172.694 C.3 0 **** -0.159
35758 C 126.766 78.3994 175.978 C.3 0 **** -0.159
35759 C 123.26 75.9367 173.367 C.3 0 **** -0.159
35760 C 120.949 76.0355 171.673 C.3 0 **** -0.159
35761 O 120.062 77.2646 169.46 O.3 0 **** -0.452
35762 C 115.4 79.042 168.994 C.3 0 **** -0.159
35763 C 115.257 81.8328 168.406 C.3 0 **** -0.159
35764 O 118.979 82.8246 165.592 O.3 0 **** -0.452
35765 O 123.353 82.7717 168.926 O.3 0 **** -0.452
35766 O 124.177 84.7987 167.738 O.2 0 **** -0.419
35767 O 119.898 84.9416 164.596 O.2 0 **** -0.419
35768 C 118.076 89.7693 158.665 C.3 0 **** -0.159
35769 C 117.009 87.0763 158.075 C.3 0 **** -0.159
35770 H 123.732 81.5247 172.303 H 0 **** 0.053
35771 H 124.992 80.8565 171.222 H 0 **** 0.053
35772 H 125.664 77.5204 173.425 H 0 **** 0.053
35773 H 124.469 77.8737 174.702 H 0 **** 0.053
35774 H 123.096 81.3338 170.342 H 0 **** 0.1268
35775 H 117.345 82.3316 166.937 H 0 **** 0.053
35776 H 117.036 80.6137 166.646 H 0 **** 0.053
35777 H 117.158 81.9604 169.391 H 0 **** 0.053
35778 H 116.756 79.9628 170.383 H 0 **** 0.053
35779 H 117.539 78.4592 167.875 H 0 **** 0.053
35780 H 118.024 78.1891 169.551 H 0 **** 0.053
35781 H 124.738 86.9579 166.815 H 0 **** 0.053
35782 H 124.869 86.5268 165.101 H 0 **** 0.053
35783 H 124.386 88.9423 165.39 H 0 **** 0.053
35784 H 122.962 88.605 166.378 H 0 **** 0.053
35785 H 123.033 90.993 164.313 H 0 **** 0.053
35786 H 124.477 90.1216 163.767 H 0 **** 0.053
35787 H 124.147 90.7367 161.467 H 0 **** 0.053
35788 H 123.94 92.2118 162.425 H 0 **** 0.053
35789 H 122.104 92.0685 160.752 H 0 **** 0.053
35790 H 121.416 91.821 162.37 H 0 **** 0.053
35791 H 122.17 89.6644 160.312 H 0 **** 0.053
35792 H 119.474 90.5442 161.543 H 0 **** 0.053
35793 H 120.021 90.7889 159.866 H 0 **** 0.053
35794 H 119.751 85.4567 161.444 H 0 **** 0.1268
35795 H 118.085 85.2088 159.651 H 0 **** 0.1268
35796 H 128.076 83.6911 173.97 H 0 **** 0.053
35797 H 128.711 82.989 175.422 H 0 **** 0.053
35798 H 126.647 83.7457 176.72 H 0 **** 0.053
35799 H 126.018 84.5031 175.234 H 0 **** 0.053
35800 H 127.518 85.1102 175.977 H 0 **** 0.053
35801 H 127.741 80.2045 177.459 H 0 **** 0.053
35802 H 128.053 81.8918 177.126 H 0 **** 0.053
35803 H 129.107 80.6478 176.397 H 0 **** 0.053
35804 H 124.738 83.3762 172.754 H 0 **** 0.053
35805 H 126.018 82.8432 171.626 H 0 **** 0.053
35806 H 126.381 83.9718 172.931 H 0 **** 0.053
35807 H 126.583 77.4514 175.436 H 0 **** 0.053
35808 H 126.122 78.3784 176.885 H 0 **** 0.053
35809 H 127.817 78.3296 176.317 H 0 **** 0.053
35810 H 123.012 74.9992 172.839 H 0 **** 0.053
35811 H 122.699 75.941 174.33 H 0 **** 0.053
35812 H 124.338 75.8261 173.624 H 0 **** 0.053
35813 H 119.884 76.3527 171.614 H 0 **** 0.053
35814 H 120.974 75.4289 172.619 H 0 **** 0.053
35815 H 121.127 75.311 170.836 H 0 **** 0.053
35816 H 119.624 77.4341 168.622 H 0 **** 0.41
35817 H 114.509 79.5057 169.437 H 0 **** 0.053
35818 H 115.483 78.0212 169.414 H 0 **** 0.053
35819 H 115.239 78.9362 167.903 H 0 **** 0.053
35820 H 115.313 82.8757 168.041 H 0 **** 0.053
35821 H 114.644 81.8349 169.32 H 0 **** 0.053
35822 H 114.731 81.2452 167.628 H 0 **** 0.053
35823 H 119.008 83.6012 165.013 H 0 **** 0.41
35824 H 123.938 83.5076 168.694 H 0 **** 0.41
35825 H 117.783 90.5871 159.35 H 0 **** 0.053
35826 H 117.177 89.5612 158.054 H 0 **** 0.053
35827 H 118.842 90.1687 157.969 H 0 **** 0.053
35828 H 116.071 87.6141 158.303 H 0 **** 0.053
35829 H 116.74 86.0103 157.972 H 0 **** 0.053
35830 H 117.354 87.4107 157.081 H 0 **** 0.053
35831 C 129.484 72.662 186.294 C.2 0 **** 0
35832 C 130.776 72.1601 186.272 C.2 0 **** 0
35833 C 131.854 73.0137 186.446 C.2 0 **** 0
35834 C 131.624 74.3512 186.653 C.2 0 **** 0
35835 C 130.33 74.852 186.731 C.2 0 **** 0
35836 C 129.258 74.0004 186.561 C.2 0 **** 0
35837 C 132.782 75.3132 186.823 C.3 0 **** -0.106
35838 C 134.197 74.801 186.594 C.2 0 **** 0
35839 C 134.435 73.4709 186.386 C.2 0 **** 0
35840 C 133.28 72.4717 186.403 C.3 0 **** -0.106
35841 C 135.742 73.0326 186.151 C.2 0 **** 0
35842 C 136.789 73.9272 186.05 C.2 0 **** 0
35843 C 136.565 75.2632 186.361 C.2 0 **** 0
35844 C 135.265 75.7155 186.617 C.2 0 **** 0
35845 C 135.032 77.0586 186.871 C.2 0 **** -0.1268
35846 C 135.987 78.0481 186.763 C.2 0 **** 0
35847 C 137.28 77.5655 186.353 C.2 0 **** 0
35848 C 137.59 76.2036 186.39 C.2 0 **** 0.042
35849 C 138.424 78.5695 186.106 C.3 0 **** 0
35850 C 138.154 80.0555 186.355 C.3 0 **** 0
35851 C 136.811 80.4401 187.007 C.2 0 **** 0
35852 C 135.77 79.4665 187.162 C.2 0 **** 0
35853 C 138.935 81.0107 185.428 C.3 0 **** -0.106
35854 C 138.87 80.5677 183.963 C.3 0 **** -0.053
35855 C 139.491 79.1524 183.76 C.3 0 **** -0.053
35856 C 139.531 78.3039 185.058 C.3 0 **** -0.106
35857 C 134.614 79.9011 187.841 C.2 0 **** 0.042
35858 C 134.504 81.1981 188.295 C.2 0 **** 0.052
35859 C 135.545 82.1032 188.151 C.2 0 **** 0.052
35860 C 136.716 81.7024 187.565 C.2 0 **** 0.042
35861 C 135.457 83.5227 188.647 C.2 0 **** 0.367
35862 C 134.177 83.9168 189.307 C.2 0 **** 0
35863 C 133.174 83.0448 189.463 C.2 0 **** 0
35864 C 133.238 81.6436 188.982 C.2 0 **** 0.367
35865 C 131.877 83.4552 190.122 C.3 0 **** -0.106
35866 C 131.561 84.924 189.743 C.3 0 **** -0.106
35867 C 132.75 85.8357 190.049 C.2 0 **** 0
35868 C 134.053 85.3406 189.819 C.2 0 **** 0.2405
35869 N 135.153 86.0921 190.04 N.2 0 **** -0.481
35870 C 134.981 87.3612 190.396 C.2 0 **** 0.2405
35871 C 133.705 87.9062 190.67 C.2 0 **** 0
35872 C 132.592 87.1217 190.503 C.2 0 **** 0
35873 C 131.191 87.6635 190.761 C.3 0 **** -0.106
35874 C 131.197 88.9662 191.571 C.3 0 **** -0.106
35875 C 132.248 89.9279 191.027 C.3 0 **** -0.106
35876 C 133.651 89.3159 191.204 C.3 0 **** -0.053
35877 C 134.737 90.1836 190.515 C.3 0 **** -0.106
35878 C 136.077 89.5048 190.625 C.2 0 **** 0
35879 C 136.174 88.1145 190.54 C.2 0 **** 0
35880 C 137.441 87.507 190.598 C.2 0 **** -0.1268
35881 C 138.571 88.2934 190.708 C.2 0 **** -0.1268
35882 C 138.486 89.674 190.749 C.2 0 **** 0
35883 C 137.231 90.2787 190.689 C.2 0 **** 0
35884 C 127.848 74.5171 186.695 C.3 0 **** -0.106
35885 C 127.352 75.1301 185.368 C.3 0 **** -0.159
35886 C 128.328 71.7341 186.027 C.3 0 **** -0.159
35887 C 130.159 76.3329 186.98 C.3 0 **** -0.159
35888 C 131.015 70.6865 186.051 C.3 0 **** -0.159
35889 C 135.96 71.5317 185.958 C.3 0 **** -0.159
35890 C 138.12 73.3794 185.591 C.3 0 **** -0.159
35891 O 138.903 75.8243 186.366 O.3 0 **** -0.452
35892 C 140.934 79.1791 183.252 C.3 0 **** -0.159
35893 C 139.53 81.6609 183.114 C.3 0 **** -0.159
35894 O 137.822 82.5054 187.489 O.3 0 **** -0.452
35895 O 133.591 79.0402 188.071 O.3 0 **** -0.452
35896 O 132.326 80.8991 189.138 O.2 0 **** -0.419
35897 O 136.355 84.2931 188.473 O.2 0 **** -0.419
35898 C 137.134 91.7952 190.689 C.3 0 **** -0.159
35899 C 139.772 90.4707 190.838 C.3 0 **** -0.159
35900 H 132.616 76.1557 186.112 H 0 **** 0.053
35901 H 132.728 75.7482 187.851 H 0 **** 0.053
35902 H 133.416 71.7946 187.281 H 0 **** 0.053
35903 H 133.373 71.8335 185.497 H 0 **** 0.053
35904 H 134.021 77.2943 187.119 H 0 **** 0.1268
35905 H 138.558 82.0327 185.499 H 0 **** 0.053
35906 H 139.968 81.0017 185.783 H 0 **** 0.053
35907 H 137.805 80.5165 183.674 H 0 **** 0.053
35908 H 138.871 78.6261 183.022 H 0 **** 0.053
35909 H 140.455 78.5246 185.6 H 0 **** 0.053
35910 H 139.564 77.2458 184.772 H 0 **** 0.053
35911 H 131.027 82.8141 189.826 H 0 **** 0.053
35912 H 131.988 83.3498 191.215 H 0 **** 0.053
35913 H 130.639 85.2093 190.279 H 0 **** 0.053
35914 H 131.307 84.9656 188.663 H 0 **** 0.053
35915 H 130.686 87.8469 189.794 H 0 **** 0.053
35916 H 130.569 86.9321 191.308 H 0 **** 0.053
35917 H 131.426 88.7466 192.631 H 0 **** 0.053
35918 H 130.195 89.4332 191.559 H 0 **** 0.053
35919 H 132.199 90.9079 191.539 H 0 **** 0.053
35920 H 132.06 90.1183 189.955 H 0 **** 0.053
35921 H 133.872 89.2948 192.299 H 0 **** 0.053
35922 H 134.465 90.3229 189.444 H 0 **** 0.053
35923 H 134.721 91.1951 190.976 H 0 **** 0.053
35924 H 137.545 86.4158 190.55 H 0 **** 0.1268
35925 H 139.561 87.8103 190.749 H 0 **** 0.1268
35926 H 127.754 75.271 187.5 H 0 **** 0.053
35927 H 127.142 73.7269 187.006 H 0 **** 0.053
35928 H 127.383 74.3885 184.553 H 0 **** 0.053
35929 H 127.972 75.9903 185.066 H 0 **** 0.053
35930 H 126.307 75.4893 185.448 H 0 **** 0.053
35931 H 128.593 70.8984 185.351 H 0 **** 0.053
35932 H 127.482 72.2369 185.521 H 0 **** 0.053
35933 H 127.929 71.2842 186.963 H 0 **** 0.053
35934 H 130.609 76.9393 186.163 H 0 **** 0.053
35935 H 130.645 76.6519 187.927 H 0 **** 0.053
35936 H 129.116 76.6762 187.05 H 0 **** 0.053
35937 H 131.973 70.3254 186.474 H 0 **** 0.053
35938 H 131.026 70.4306 184.969 H 0 **** 0.053
35939 H 130.243 70.0566 186.532 H 0 **** 0.053
35940 H 136.946 71.1959 186.325 H 0 **** 0.053
35941 H 135.878 71.2342 184.887 H 0 **** 0.053
35942 H 135.233 70.9042 186.522 H 0 **** 0.053
35943 H 138.619 74.053 184.859 H 0 **** 0.053
35944 H 138.061 72.407 185.03 H 0 **** 0.053
35945 H 138.841 73.2087 186.432 H 0 **** 0.053
35946 H 139.452 76.5568 186.658 H 0 **** 0.41
35947 H 141.005 79.6313 182.254 H 0 **** 0.053
35948 H 141.337 78.1511 183.177 H 0 **** 0.053
35949 H 141.594 79.7402 183.943 H 0 **** 0.053
35950 H 139.002 82.6247 183.241 H 0 **** 0.053
35951 H 139.504 81.4075 182.044 H 0 **** 0.053
35952 H 140.584 81.828 183.414 H 0 **** 0.053
35953 H 137.575 83.3916 187.793 H 0 **** 0.41
35954 H 132.86 79.4996 188.51 H 0 **** 0.41
35955 H 136.494 92.1605 189.864 H 0 **** 0.053
35956 H 138.108 92.302 190.553 H 0 **** 0.053
35957 H 136.712 92.1793 191.641 H 0 **** 0.053
35958 H 139.922 91.1105 189.949 H 0 **** 0.053
35959 H 140.661 89.8188 190.906 H 0 **** 0.053
35960 H 139.791 91.1226 191.728 H 0 **** 0.053
35961 C 138.309 23.2203 152.258 C.2 0 **** 0
35962 C 138.164 23.9306 153.439 C.2 0 **** 0
35963 C 137.307 23.4675 154.424 C.2 0 **** 0
35964 C 136.621 22.2959 154.22 C.2 0 **** 0
35965 C 136.804 21.5503 153.062 C.2 0 **** 0
35966 C 137.66 22.0114 152.083 C.2 0 **** 0
35967 C 135.659 21.7758 155.269 C.3 0 **** -0.106
35968 C 135.341 22.6556 156.471 C.2 0 **** 0
35969 C 136.019 23.8241 156.681 C.2 0 **** 0
35970 C 137.126 24.2541 155.72 C.3 0 **** -0.106
35971 C 135.688 24.6256 157.778 C.2 0 **** 0
35972 C 134.638 24.297 158.613 C.2 0 **** 0
35973 C 134.018 23.0623 158.46 C.2 0 **** 0
35974 C 134.35 22.2395 157.377 C.2 0 **** 0
35975 C 133.692 21.0333 157.191 C.2 0 **** -0.1268
35976 C 132.607 20.6164 157.935 C.2 0 **** 0
35977 C 132.198 21.5572 158.945 C.2 0 **** 0
35978 C 133.028 22.6133 159.33 C.2 0 **** 0.042
35979 C 130.946 21.2645 159.796 C.3 0 **** 0
35980 C 130.201 19.9475 159.564 C.3 0 **** 0
35981 C 130.849 18.9141 158.621 C.2 0 **** 0
35982 C 131.984 19.2686 157.821 C.2 0 **** 0
35983 C 128.677 20.0272 159.795 C.3 0 **** -0.106
35984 C 128.059 21.2578 159.123 C.3 0 **** -0.053
35985 C 128.659 22.583 159.685 C.3 0 **** -0.053
35986 C 130.05 22.3998 160.347 C.3 0 **** -0.106
35987 C 132.548 18.2288 157.054 C.2 0 **** 0.042
35988 C 132.004 16.9621 157.068 C.2 0 **** 0.052
35989 C 130.921 16.6517 157.878 C.2 0 **** 0.052
35990 C 130.389 17.6117 158.697 C.2 0 **** 0.042
35991 C 130.314 15.2742 157.922 C.2 0 **** 0.367
35992 C 130.937 14.2451 157.038 C.2 0 **** 0
35993 C 131.991 14.5331 156.266 C.2 0 **** 0
35994 C 132.605 15.8819 156.205 C.2 0 **** 0.367
35995 C 132.609 13.4883 155.365 C.3 0 **** -0.106
35996 C 131.489 12.5673 154.819 C.3 0 **** -0.106
35997 C 130.637 12.0063 155.957 C.2 0 **** 0
35998 C 130.35 12.8453 157.058 C.2 0 **** 0.2405
35999 N 129.582 12.4339 158.089 N.2 0 **** -0.481
36000 C 129.017 11.2337 158.008 C.2 0 **** 0.2405
36001 C 129.29 10.337 156.949 C.2 0 **** 0
36002 C 130.118 10.7362 155.93 C.2 0 **** 0
36003 C 130.428 9.82017 154.752 C.3 0 **** -0.106
36004 C 130.066 8.35527 155.026 C.3 0 **** -0.106
36005 C 128.685 8.2572 155.666 C.3 0 **** -0.106
36006 C 128.701 8.95133 157.041 C.3 0 **** -0.053
36007 C 127.278 9.0223 157.655 C.3 0 **** -0.106
36008 C 127.318 9.79244 158.948 C.2 0 **** 0
36009 C 128.166 10.8918 159.089 C.2 0 **** 0
36010 C 128.152 11.6237 160.29 C.2 0 **** -0.1268
36011 C 127.28 11.2635 161.3 C.2 0 **** -0.1268
36012 C 126.406 10.2013 161.15 C.2 0 **** 0
36013 C 126.416 9.47628 159.959 C.2 0 **** 0
36014 C 137.91 21.1901 150.843 C.3 0 **** -0.106
36015 C 136.825 21.4482 149.776 C.3 0 **** -0.159
36016 C 139.186 23.7762 151.166 C.3 0 **** -0.159
36017 C 136.026 20.2621 152.919 C.3 0 **** -0.159
36018 C 138.931 25.2128 153.654 C.3 0 **** -0.159
36019 C 136.498 25.9049 157.988 C.3 0 **** -0.159
36020 C 134.229 25.3254 159.64 C.3 0 **** -0.159
36021 O 132.792 23.2396 160.521 O.3 0 **** -0.452
36022 C 127.79 23.2491 160.754 C.3 0 **** -0.159
36023 C 126.537 21.1559 159.27 C.3 0 **** -0.159
36024 O 129.395 17.3501 159.601 O.3 0 **** -0.452
36025 O 133.649 18.4574 156.295 O.3 0 **** -0.452
36026 O 133.54 16.0996 155.506 O.2 0 **** -0.419
36027 O 129.354 15.0457 158.599 O.2 0 **** -0.419
36028 C 125.428 8.33685 159.772 C.3 0 **** -0.159
36029 C 125.457 9.88601 162.289 C.3 0 **** -0.159
36030 H 134.695 21.5615 154.752 H 0 **** 0.053
36031 H 136.044 20.7958 155.643 H 0 **** 0.053
36032 H 138.097 24.2343 156.272 H 0 **** 0.053
36033 H 136.942 25.3169 155.448 H 0 **** 0.053
36034 H 134.06 20.4484 156.379 H 0 **** 0.1268
36035 H 128.17 19.1362 159.421 H 0 **** 0.053
36036 H 128.535 20.0726 160.877 H 0 **** 0.053
36037 H 128.297 21.2073 158.046 H 0 **** 0.053
36038 H 128.766 23.2768 158.841 H 0 **** 0.053
36039 H 129.913 22.1312 161.398 H 0 **** 0.053
36040 H 130.569 23.3657 160.32 H 0 **** 0.053
36041 H 133.161 13.93 154.516 H 0 **** 0.053
36042 H 133.341 12.906 155.951 H 0 **** 0.053
36043 H 131.976 11.7868 154.209 H 0 **** 0.053
36044 H 130.861 13.1519 154.113 H 0 **** 0.053
36045 H 129.868 10.1654 153.862 H 0 **** 0.053
36046 H 131.499 9.85562 154.483 H 0 **** 0.053
36047 H 130.811 7.90762 155.711 H 0 **** 0.053
36048 H 130.108 7.76504 154.092 H 0 **** 0.053
36049 H 128.37 7.20248 155.781 H 0 **** 0.053
36050 H 127.937 8.74359 155.014 H 0 **** 0.053
36051 H 129.338 8.3337 157.721 H 0 **** 0.053
36052 H 126.595 9.52414 156.932 H 0 **** 0.053
36053 H 126.897 7.98479 157.776 H 0 **** 0.053
36054 H 128.82 12.4821 160.434 H 0 **** 0.1268
36055 H 127.271 11.8435 162.237 H 0 **** 0.1268
36056 H 137.953 20.1053 151.063 H 0 **** 0.053
36057 H 138.9 21.3963 150.4 H 0 **** 0.053
36058 H 136.791 22.5138 149.495 H 0 **** 0.053
36059 H 135.825 21.1636 150.141 H 0 **** 0.053
36060 H 137.015 20.8688 148.85 H 0 **** 0.053
36061 H 139.222 24.8833 151.162 H 0 **** 0.053
36062 H 138.831 23.5111 150.152 H 0 **** 0.053
36063 H 140.235 23.4168 151.253 H 0 **** 0.053
36064 H 134.928 20.4453 152.924 H 0 **** 0.053
36065 H 136.242 19.5553 153.75 H 0 **** 0.053
36066 H 136.22 19.7016 151.993 H 0 **** 0.053
36067 H 139.098 25.4556 154.722 H 0 **** 0.053
36068 H 138.406 26.0849 153.206 H 0 **** 0.053
36069 H 139.946 25.1771 153.214 H 0 **** 0.053
36070 H 136.602 26.1711 159.054 H 0 **** 0.053
36071 H 136.043 26.7767 157.465 H 0 **** 0.053
36072 H 137.549 25.8266 157.626 H 0 **** 0.053
36073 H 133.123 25.4176 159.723 H 0 **** 0.053
36074 H 134.548 26.3778 159.407 H 0 **** 0.053
36075 H 134.621 25.105 160.667 H 0 **** 0.053
36076 H 132.284 22.6603 161.095 H 0 **** 0.41
36077 H 126.82 23.5648 160.349 H 0 **** 0.053
36078 H 128.289 24.1533 161.151 H 0 **** 0.053
36079 H 127.613 22.5697 161.611 H 0 **** 0.053
36080 H 126.159 20.2341 158.789 H 0 **** 0.053
36081 H 126.031 22.0089 158.793 H 0 **** 0.053
36082 H 126.233 21.1128 160.334 H 0 **** 0.053
36083 H 129.084 16.444 159.455 H 0 **** 0.41
36084 H 133.886 17.658 155.802 H 0 **** 0.41
36085 H 124.885 8.4245 158.813 H 0 **** 0.053
36086 H 124.644 8.29674 160.552 H 0 **** 0.053
36087 H 125.933 7.34882 159.786 H 0 **** 0.053
36088 H 124.4 10.0127 161.992 H 0 **** 0.053
36089 H 125.617 10.5467 163.159 H 0 **** 0.053
36090 H 125.581 8.85128 162.654 H 0 **** 0.053
36091 C 134.224 5.60198 134.765 C.2 0 **** 0
36092 C 133.465 5.19105 135.849 C.2 0 **** 0
36093 C 132.308 4.45608 135.646 C.2 0 **** 0
36094 C 131.936 4.13109 134.365 C.2 0 **** 0
36095 C 132.722 4.49208 133.277 C.2 0 **** 0
36096 C 133.875 5.22155 133.481 C.2 0 **** 0
36097 C 130.664 3.34804 134.109 C.3 0 **** -0.106
36098 C 129.726 3.07647 135.277 C.2 0 **** 0
36099 C 130.088 3.39781 136.556 C.2 0 **** 0
36100 C 131.456 4.01669 136.834 C.3 0 **** -0.106
36101 C 129.195 3.16118 137.606 C.2 0 **** 0
36102 C 127.924 2.67812 137.368 C.2 0 **** 0
36103 C 127.593 2.25734 136.085 C.2 0 **** 0
36104 C 128.483 2.47024 135.025 C.2 0 **** 0
36105 C 128.131 2.10232 133.735 C.2 0 **** -0.1268
36106 C 126.882 1.64565 133.37 C.2 0 **** 0
36107 C 125.945 1.58046 134.461 C.2 0 **** 0
36108 C 126.372 1.65782 135.789 C.2 0 **** 0.042
36109 C 124.484 1.1707 134.186 C.3 0 **** 0
36110 C 124.09 0.795075 132.755 C.3 0 **** 0
36111 C 125.217 0.68259 131.708 C.2 0 **** 0
36112 C 126.544 1.12942 132.014 C.2 0 **** 0
36113 C 122.637 1.15295 132.379 C.3 0 **** -0.106
36114 C 122.27 2.57378 132.815 C.3 0 **** -0.053
36115 C 122.376 2.753 134.359 C.3 0 **** -0.053
36116 C 123.31 1.71546 135.035 C.3 0 **** -0.106
36117 C 127.515 0.905725 131.018 C.2 0 **** 0.042
36118 C 127.177 0.318076 129.817 C.2 0 **** 0.052
36119 C 125.887 -0.125541 129.57 C.2 0 **** 0.052
36120 C 124.928 0.00055585 130.54 C.2 0 **** 0.042
36121 C 125.492 -0.78199 128.272 C.2 0 **** 0.367
36122 C 126.568 -0.930999 127.249 C.2 0 **** 0
36123 C 127.82 -0.519289 127.487 C.2 0 **** 0
36124 C 128.23 0.13004 128.755 C.2 0 **** 0.367
36125 C 128.902 -0.663578 126.441 C.3 0 **** -0.106
36126 C 128.28 -0.450231 125.039 C.3 0 **** -0.106
36127 C 127.068 -1.35939 124.834 C.2 0 **** 0
36128 C 126.206 -1.58888 125.93 C.2 0 **** 0.2405
36129 N 125.1 -2.35544 125.823 N.2 0 **** -0.481
36130 C 124.781 -2.82754 124.622 C.2 0 **** 0.2405
36131 C 125.616 -2.65589 123.493 C.2 0 **** 0
36132 C 126.771 -1.92548 123.619 C.2 0 **** 0
36133 C 127.696 -1.69047 122.431 C.3 0 **** -0.106
36134 C 127.42 -2.64495 121.263 C.3 0 **** -0.106
36135 C 125.922 -2.73772 120.993 C.3 0 **** -0.106
36136 C 125.216 -3.35112 122.216 C.3 0 **** -0.053
36137 C 123.673 -3.32258 122.058 C.3 0 **** -0.106
36138 C 123.018 -3.84079 123.312 C.2 0 **** 0
36139 C 123.57 -3.56231 124.564 C.2 0 **** 0
36140 C 122.912 -4.01443 125.722 C.2 0 **** -0.1268
36141 C 121.721 -4.70436 125.608 C.2 0 **** -0.1268
36142 C 121.147 -4.94815 124.373 C.2 0 **** 0
36143 C 121.794 -4.49564 123.223 C.2 0 **** 0
36144 C 134.765 5.57687 132.318 C.3 0 **** -0.106
36145 C 134.279 6.86352 131.618 C.3 0 **** -0.159
36146 C 135.437 6.46546 134.998 C.3 0 **** -0.159
36147 C 132.255 4.08112 131.9 C.3 0 **** -0.159
36148 C 133.889 5.54826 137.253 C.3 0 **** -0.159
36149 C 129.661 3.50605 139.021 C.3 0 **** -0.159
36150 C 126.968 2.65207 138.538 C.3 0 **** -0.159
36151 O 125.539 1.21693 136.779 O.3 0 **** -0.452
36152 C 121.038 2.62773 135.092 C.3 0 **** -0.159
36153 C 120.88 2.88413 132.255 C.3 0 **** -0.159
36154 O 123.667 -0.515127 130.41 O.3 0 **** -0.452
36155 O 128.809 1.25414 131.232 O.3 0 **** -0.452
36156 O 129.352 0.482673 128.929 O.2 0 **** -0.419
36157 O 124.361 -1.12068 128.073 O.2 0 **** -0.419
36158 C 121.146 -4.71925 121.867 C.3 0 **** -0.159
36159 C 119.821 -5.68119 124.328 C.3 0 **** -0.159
36160 H 130.083 3.90881 133.341 H 0 **** 0.053
36161 H 130.942 2.36962 133.646 H 0 **** 0.053
36162 H 132.055 3.28965 137.435 H 0 **** 0.053
36163 H 131.299 4.90558 137.484 H 0 **** 0.053
36164 H 128.898 2.24447 133.008 H 0 **** 0.1268
36165 H 122.468 1.06449 131.305 H 0 **** 0.053
36166 H 122.003 0.422613 132.887 H 0 **** 0.053
36167 H 122.984 3.26937 132.34 H 0 **** 0.053
36168 H 122.782 3.75618 134.544 H 0 **** 0.053
36169 H 122.732 0.81957 135.278 H 0 **** 0.053
36170 H 123.666 2.14293 135.98 H 0 **** 0.053
36171 H 129.73 0.0541537 126.583 H 0 **** 0.053
36172 H 129.339 -1.67376 126.524 H 0 **** 0.053
36173 H 129.08 -0.612502 124.297 H 0 **** 0.053
36174 H 127.987 0.616719 124.938 H 0 **** 0.053
36175 H 127.578 -0.648913 122.076 H 0 **** 0.053
36176 H 128.757 -1.8076 122.716 H 0 **** 0.053
36177 H 127.805 -3.65373 121.506 H 0 **** 0.053
36178 H 127.962 -2.31488 120.357 H 0 **** 0.053
36179 H 125.714 -3.35106 120.096 H 0 **** 0.053
36180 H 125.514 -1.73046 120.795 H 0 **** 0.053
36181 H 125.535 -4.41743 122.269 H 0 **** 0.053
36182 H 123.349 -2.27484 121.864 H 0 **** 0.053
36183 H 123.403 -3.90747 121.152 H 0 **** 0.053
36184 H 123.336 -3.82425 126.716 H 0 **** 0.1268
36185 H 121.211 -5.05392 126.519 H 0 **** 0.1268
36186 H 134.826 4.75944 131.574 H 0 **** 0.053
36187 H 135.817 5.71634 132.625 H 0 **** 0.053
36188 H 134.257 7.71304 132.321 H 0 **** 0.053
36189 H 133.264 6.73882 131.206 H 0 **** 0.053
36190 H 134.943 7.1479 130.778 H 0 **** 0.053
36191 H 135.34 7.11263 135.891 H 0 **** 0.053
36192 H 135.626 7.173 134.168 H 0 **** 0.053
36193 H 136.361 5.86069 135.13 H 0 **** 0.053
36194 H 131.267 4.53173 131.652 H 0 **** 0.053
36195 H 132.139 2.97916 131.814 H 0 **** 0.053
36196 H 132.92 4.37651 131.075 H 0 **** 0.053
36197 H 133.511 4.84701 138.022 H 0 **** 0.053
36198 H 133.535 6.5625 137.542 H 0 **** 0.053
36199 H 134.989 5.53412 137.378 H 0 **** 0.053
36200 H 129.225 2.8391 139.786 H 0 **** 0.053
36201 H 129.403 4.55359 139.299 H 0 **** 0.053
36202 H 130.76 3.39802 139.162 H 0 **** 0.053
36203 H 125.949 2.99371 138.251 H 0 **** 0.053
36204 H 127.235 3.34795 139.379 H 0 **** 0.053
36205 H 126.861 1.63584 138.999 H 0 **** 0.053
36206 H 124.892 0.612312 136.406 H 0 **** 0.41
36207 H 120.336 3.41926 134.796 H 0 **** 0.053
36208 H 121.187 2.71183 136.185 H 0 **** 0.053
36209 H 120.564 1.6451 134.9 H 0 **** 0.053
36210 H 120.88 2.8168 131.151 H 0 **** 0.053
36211 H 120.562 3.90198 132.524 H 0 **** 0.053
36212 H 120.124 2.16212 132.623 H 0 **** 0.053
36213 H 123.563 -0.833793 129.501 H 0 **** 0.41
36214 H 129.336 1.07887 130.438 H 0 **** 0.41
36215 H 121.105 -3.7838 121.278 H 0 **** 0.053
36216 H 120.099 -5.07495 121.928 H 0 **** 0.053
36217 H 121.698 -5.47259 121.268 H 0 **** 0.053
36218 H 119.017 -5.05197 123.905 H 0 **** 0.053
36219 H 119.481 -5.9864 125.334 H 0 **** 0.053
36220 H 119.881 -6.60279 123.723 H 0 **** 0.053
36221 C 118.453 68.9339 146.417 C.2 0 **** 0
36222 C 118.335 70.2457 146.849 C.2 0 **** 0
36223 C 118.94 71.2671 146.135 C.2 0 **** 0
36224 C 119.64 70.9631 144.993 C.2 0 **** 0
36225 C 119.716 69.6574 144.524 C.2 0 **** 0
36226 C 119.11 68.6423 145.235 C.2 0 **** 0
36227 C 120.332 72.0549 144.203 C.3 0 **** -0.106
36228 C 120.378 73.4616 144.785 C.2 0 **** 0
36229 C 119.685 73.7709 145.922 C.2 0 **** 0
36230 C 118.831 72.7117 146.615 C.3 0 **** -0.106
36231 C 119.768 75.0642 146.448 C.2 0 **** 0
36232 C 120.598 76.0143 145.885 C.2 0 **** 0
36233 C 121.225 75.7246 144.679 C.2 0 **** 0
36234 C 121.132 74.4453 144.123 C.2 0 **** 0
36235 C 121.801 74.1446 142.946 C.2 0 **** -0.1268
36236 C 122.684 74.9969 142.315 C.2 0 **** 0
36237 C 122.87 76.2493 142.993 C.2 0 **** 0
36238 C 122 76.6564 144.002 C.2 0 **** 0.042
36239 C 123.889 77.2719 142.45 C.3 0 **** 0
36240 C 124.648 76.928 141.166 C.3 0 **** 0
36241 C 124.22 75.66 140.4 C.2 0 **** 0
36242 C 123.301 74.7285 140.986 C.2 0 **** 0
36243 C 126.082 77.4979 141.102 C.3 0 **** -0.106
36244 C 126.851 77.2675 142.407 C.3 0 **** -0.053
36245 C 126.156 77.9636 143.616 C.3 0 **** -0.053
36246 C 124.65 78.2467 143.382 C.3 0 **** -0.106
36247 C 122.914 73.6465 140.169 C.2 0 **** 0.042
36248 C 123.426 73.4993 138.898 C.2 0 **** 0.052
36249 C 124.292 74.4378 138.357 C.2 0 **** 0.052
36250 C 124.634 75.5464 139.085 C.2 0 **** 0.042
36251 C 124.857 74.3079 136.968 C.2 0 **** 0.367
36252 C 124.438 73.1042 136.191 C.2 0 **** 0
36253 C 123.591 72.2025 136.701 C.2 0 **** 0
36254 C 123.024 72.3088 138.066 C.2 0 **** 0.367
36255 C 123.182 70.9798 135.912 C.3 0 **** -0.106
36256 C 124.387 70.5033 135.063 C.3 0 **** -0.106
36257 C 124.951 71.6474 134.22 C.2 0 **** 0
36258 C 124.989 72.9421 134.786 C.2 0 **** 0.2405
36259 N 125.496 74.0003 134.117 N.2 0 **** -0.481
36260 C 126.052 73.7803 132.93 C.2 0 **** 0.2405
36261 C 126.018 72.5158 132.298 C.2 0 **** 0
36262 C 125.451 71.4544 132.957 C.2 0 **** 0
36263 C 125.411 70.0679 132.333 C.3 0 **** -0.106
36264 C 125.675 70.079 130.823 C.3 0 **** -0.106
36265 C 126.872 70.9677 130.505 C.3 0 **** -0.106
36266 C 126.553 72.4249 130.89 C.3 0 **** -0.053
36267 C 127.8 73.3349 130.742 C.3 0 **** -0.106
36268 C 127.476 74.7252 131.22 C.2 0 **** 0
36269 C 126.631 74.9184 132.314 C.2 0 **** 0
36270 C 126.381 76.2244 132.771 C.2 0 **** -0.1268
36271 C 126.996 77.2942 132.151 C.2 0 **** -0.1268
36272 C 127.869 77.1081 131.093 C.2 0 **** 0
36273 C 128.121 75.8134 130.641 C.2 0 **** 0
36274 C 119.138 67.2286 144.714 C.3 0 **** -0.106
36275 C 120.44 66.5097 145.126 C.3 0 **** -0.159
36276 C 117.854 67.8274 147.246 C.3 0 **** -0.159
36277 C 120.49 69.4078 143.25 C.3 0 **** -0.159
36278 C 117.555 70.5666 148.101 C.3 0 **** -0.159
36279 C 118.947 75.3711 147.701 C.3 0 **** -0.159
36280 C 120.773 77.3092 146.644 C.3 0 **** -0.159
36281 O 122.002 77.9678 144.363 O.3 0 **** -0.452
36282 C 126.767 79.3168 143.985 C.3 0 **** -0.159
36283 C 128.299 77.7176 142.183 C.3 0 **** -0.159
36284 O 125.39 76.5678 138.576 O.3 0 **** -0.452
36285 O 122.014 72.7373 140.622 O.3 0 **** -0.452
36286 O 122.273 71.4884 138.486 O.2 0 **** -0.419
36287 O 125.633 75.1132 136.541 O.2 0 **** -0.419
36288 C 129.111 75.5994 129.509 C.3 0 **** -0.159
36289 C 128.53 78.3283 130.485 C.3 0 **** -0.159
36290 H 121.386 71.7284 144.045 H 0 **** 0.053
36291 H 119.86 72.1089 143.191 H 0 **** 0.053
36292 H 117.761 73.0198 146.537 H 0 **** 0.053
36293 H 119.085 72.7292 147.697 H 0 **** 0.053
36294 H 121.62 73.1609 142.571 H 0 **** 0.1268
36295 H 126.65 77.0557 140.282 H 0 **** 0.053
36296 H 125.975 78.5675 140.907 H 0 **** 0.053
36297 H 126.864 76.18 142.602 H 0 **** 0.053
36298 H 126.251 77.2912 144.479 H 0 **** 0.053
36299 H 124.54 79.2159 142.888 H 0 **** 0.053
36300 H 124.169 78.3236 144.363 H 0 **** 0.053
36301 H 122.842 70.1492 136.557 H 0 **** 0.053
36302 H 122.329 71.2468 135.264 H 0 **** 0.053
36303 H 124.046 69.6432 134.463 H 0 **** 0.053
36304 H 125.165 70.1012 135.745 H 0 **** 0.053
36305 H 126.159 69.4183 132.824 H 0 **** 0.053
36306 H 124.431 69.5951 132.494 H 0 **** 0.053
36307 H 124.787 70.4667 130.289 H 0 **** 0.053
36308 H 125.837 69.0507 130.45 H 0 **** 0.053
36309 H 127.141 70.9127 129.432 H 0 **** 0.053
36310 H 127.754 70.619 131.072 H 0 **** 0.053
36311 H 125.77 72.7939 130.183 H 0 **** 0.053
36312 H 128.634 72.9074 131.343 H 0 **** 0.053
36313 H 128.131 73.3028 129.681 H 0 **** 0.053
36314 H 125.708 76.4039 133.619 H 0 **** 0.1268
36315 H 126.8 78.3146 132.517 H 0 **** 0.1268
36316 H 119.035 67.1876 143.612 H 0 **** 0.053
36317 H 118.278 66.6354 145.07 H 0 **** 0.053
36318 H 120.55 66.4859 146.223 H 0 **** 0.053
36319 H 121.328 67.013 144.709 H 0 **** 0.053
36320 H 120.459 65.4603 144.77 H 0 **** 0.053
36321 H 117.836 68.0618 148.328 H 0 **** 0.053
36322 H 118.428 66.8835 147.181 H 0 **** 0.053
36323 H 116.809 67.5974 146.943 H 0 **** 0.053
36324 H 121.561 69.6937 143.36 H 0 **** 0.053
36325 H 120.084 69.993 142.398 H 0 **** 0.053
36326 H 120.506 68.361 142.913 H 0 **** 0.053
36327 H 117.154 71.5983 148.12 H 0 **** 0.053
36328 H 118.18 70.4492 149.014 H 0 **** 0.053
36329 H 116.666 69.9186 148.222 H 0 **** 0.053
36330 H 118.608 76.4217 147.74 H 0 **** 0.053
36331 H 119.52 75.1673 148.635 H 0 **** 0.053
36332 H 118.005 74.7799 147.768 H 0 **** 0.053
36333 H 121.831 77.6515 146.653 H 0 **** 0.053
36334 H 120.527 77.2522 147.739 H 0 **** 0.053
36335 H 120.155 78.1494 146.233 H 0 **** 0.053
36336 H 122.31 78.504 143.628 H 0 **** 0.41
36337 H 127.809 79.2149 144.317 H 0 **** 0.053
36338 H 126.202 79.7834 144.814 H 0 **** 0.053
36339 H 126.735 80.0195 143.129 H 0 **** 0.053
36340 H 128.765 77.1382 141.364 H 0 **** 0.053
36341 H 128.91 77.565 143.085 H 0 **** 0.053
36342 H 128.353 78.7863 141.895 H 0 **** 0.053
36343 H 125.724 76.2905 137.709 H 0 **** 0.41
36344 H 121.891 72.0361 139.964 H 0 **** 0.41
36345 H 129.859 74.8257 129.765 H 0 **** 0.053
36346 H 129.697 76.5034 129.255 H 0 **** 0.053
36347 H 128.604 75.2827 128.574 H 0 **** 0.053
36348 H 129.629 78.3049 130.606 H 0 **** 0.053
36349 H 128.184 79.2664 130.953 H 0 **** 0.053
36350 H 128.314 78.418 129.406 H 0 **** 0.053
36351 C 144.393 97.9123 142.798 C.2 0 **** 0
36352 C 144.751 96.6194 142.45 C.2 0 **** 0
36353 C 143.788 95.6243 142.398 C.2 0 **** 0
36354 C 142.482 95.9392 142.68 C.2 0 **** 0
36355 C 142.108 97.2442 142.976 C.2 0 **** 0
36356 C 143.067 98.2346 143.025 C.2 0 **** 0
36357 C 141.411 94.8677 142.655 C.3 0 **** -0.106
36358 C 141.833 93.4155 142.477 C.2 0 **** 0
36359 C 143.132 93.0939 142.197 C.2 0 **** 0
36360 C 144.178 94.194 142.034 C.3 0 **** -0.106
36361 C 143.496 91.75 142.066 C.2 0 **** 0
36362 C 142.584 90.7367 142.288 C.2 0 **** 0
36363 C 141.246 91.0643 142.472 C.2 0 **** 0
36364 C 140.862 92.4056 142.588 C.2 0 **** 0
36365 C 139.535 92.7313 142.829 C.2 0 **** -0.1268
36366 C 138.545 91.8106 143.104 C.2 0 **** 0
36367 C 139.008 90.4473 143.123 C.2 0 **** 0
36368 C 140.252 90.0971 142.592 C.2 0 **** 0.042
36369 C 138.031 89.3169 143.501 C.3 0 **** 0
36370 C 136.575 89.6836 143.8 C.3 0 **** 0
36371 C 136.133 91.1362 143.532 C.2 0 **** 0
36372 C 137.101 92.15 143.233 C.2 0 **** 0
36373 C 135.893 88.7843 144.853 C.3 0 **** -0.106
36374 C 136.782 88.5663 146.081 C.3 0 **** -0.053
36375 C 138.123 87.8651 145.707 C.3 0 **** -0.053
36376 C 138.508 88.0285 144.213 C.3 0 **** -0.106
36377 C 136.586 93.4252 142.926 C.2 0 **** 0.042
36378 C 135.228 93.6649 142.947 C.2 0 **** 0.052
36379 C 134.321 92.6505 143.214 C.2 0 **** 0.052
36380 C 134.774 91.3779 143.442 C.2 0 **** 0.042
36381 C 132.832 92.8815 143.232 C.2 0 **** 0.367
36382 C 132.373 94.2732 142.95 C.2 0 **** 0
36383 C 133.241 95.2541 142.677 C.2 0 **** 0
36384 C 134.71 95.0501 142.655 C.2 0 **** 0.367
36385 C 132.768 96.6634 142.404 C.3 0 **** -0.106
36386 C 131.532 96.9613 143.289 C.3 0 **** -0.106
36387 C 130.462 95.8834 143.115 C.2 0 **** 0
36388 C 130.878 94.5415 142.96 C.2 0 **** 0.2405
36389 N 129.995 93.5287 142.83 N.2 0 **** -0.481
36390 C 128.701 93.8107 142.942 C.2 0 **** 0.2405
36391 C 128.221 95.1352 143.067 C.2 0 **** 0
36392 C 129.12 96.1695 143.14 C.2 0 **** 0
36393 C 128.66 97.6131 143.299 C.3 0 **** -0.106
36394 C 127.173 97.8031 142.973 C.3 0 **** -0.106
36395 C 126.338 96.7085 143.629 C.3 0 **** -0.106
36396 C 126.726 95.3384 143.041 C.3 0 **** -0.053
36397 C 126.023 94.1796 143.796 C.3 0 **** -0.106
36398 C 126.502 92.8569 143.26 C.2 0 **** 0
36399 C 127.831 92.6935 142.867 C.2 0 **** 0
36400 C 128.267 91.4353 142.414 C.2 0 **** -0.1268
36401 C 127.382 90.3739 142.391 C.2 0 **** -0.1268
36402 C 126.074 90.5174 142.819 C.2 0 **** 0
36403 C 125.642 91.7633 143.272 C.2 0 **** 0
36404 C 142.671 99.6638 143.295 C.3 0 **** -0.106
36405 C 142.56 99.9343 144.811 C.3 0 **** -0.159
36406 C 145.463 98.9651 142.926 C.3 0 **** -0.159
36407 C 140.648 97.5132 143.26 C.3 0 **** -0.159
36408 C 146.189 96.2879 142.134 C.3 0 **** -0.159
36409 C 144.953 91.444 141.718 C.3 0 **** -0.159
36410 C 143.121 89.325 142.324 C.3 0 **** -0.159
36411 O 140.493 88.7883 142.281 O.3 0 **** -0.452
36412 C 138.122 86.3562 145.96 C.3 0 **** -0.159
36413 C 135.956 87.8061 147.126 C.3 0 **** -0.159
36414 O 133.935 90.3077 143.601 O.3 0 **** -0.452
36415 O 137.422 94.4388 142.59 O.3 0 **** -0.452
36416 O 135.451 95.9467 142.41 O.2 0 **** -0.419
36417 O 132.076 91.9948 143.505 O.2 0 **** -0.419
36418 C 124.22 91.9164 143.785 C.3 0 **** -0.159
36419 C 125.172 89.2996 142.794 C.3 0 **** -0.159
36420 H 140.858 94.9349 143.621 H 0 **** 0.053
36421 H 140.679 95.1226 141.85 H 0 **** 0.053
36422 H 144.526 94.1927 140.973 H 0 **** 0.053
36423 H 145.059 93.9153 142.654 H 0 **** 0.053
36424 H 139.33 93.778 142.837 H 0 **** 0.1268
36425 H 134.942 89.2064 145.183 H 0 **** 0.053
36426 H 135.691 87.8331 144.355 H 0 **** 0.053
36427 H 137.022 89.5592 146.502 H 0 **** 0.053
36428 H 138.912 88.3215 146.319 H 0 **** 0.053
36429 H 138.04 87.2271 143.635 H 0 **** 0.053
36430 H 139.594 87.9046 144.127 H 0 **** 0.053
36431 H 133.548 97.4212 142.604 H 0 **** 0.053
36432 H 132.51 96.7478 141.334 H 0 **** 0.053
36433 H 131.18 97.9747 143.03 H 0 **** 0.053
36434 H 131.859 97.0176 144.349 H 0 **** 0.053
36435 H 128.841 97.9423 144.341 H 0 **** 0.053
36436 H 129.235 98.2956 142.648 H 0 **** 0.053
36437 H 127.023 97.7612 141.877 H 0 **** 0.053
36438 H 126.831 98.8041 143.296 H 0 **** 0.053
36439 H 125.256 96.8868 143.483 H 0 **** 0.053
36440 H 126.516 96.7073 144.72 H 0 **** 0.053
36441 H 126.378 95.319 141.98 H 0 **** 0.053
36442 H 126.256 94.2594 144.882 H 0 **** 0.053
36443 H 124.924 94.3175 143.702 H 0 **** 0.053
36444 H 129.302 91.2838 142.084 H 0 **** 0.1268
36445 H 127.731 89.3899 142.038 H 0 **** 0.1268
36446 H 141.713 99.9316 142.808 H 0 **** 0.053
36447 H 143.384 100.384 142.858 H 0 **** 0.053
36448 H 143.515 99.7286 145.321 H 0 **** 0.053
36449 H 141.785 99.3037 145.277 H 0 **** 0.053
36450 H 142.295 100.99 145.019 H 0 **** 0.053
36451 H 146.441 98.55 143.24 H 0 **** 0.053
36452 H 145.229 99.7239 143.697 H 0 **** 0.053
36453 H 145.629 99.5089 141.97 H 0 **** 0.053
36454 H 140.293 96.9454 144.149 H 0 **** 0.053
36455 H 140 97.2184 142.406 H 0 **** 0.053
36456 H 140.401 98.5638 143.473 H 0 **** 0.053
36457 H 146.306 95.4093 141.471 H 0 **** 0.053
36458 H 146.773 96.0718 143.057 H 0 **** 0.053
36459 H 146.705 97.1101 141.602 H 0 **** 0.053
36460 H 145.06 90.5285 141.11 H 0 **** 0.053
36461 H 145.581 91.3195 142.63 H 0 **** 0.053
36462 H 145.435 92.2364 141.101 H 0 **** 0.053
36463 H 142.669 88.7274 143.147 H 0 **** 0.053
36464 H 144.222 89.2442 142.536 H 0 **** 0.053
36465 H 142.947 88.7613 141.371 H 0 **** 0.053
36466 H 139.657 88.3296 142.162 H 0 **** 0.41
36467 H 138.004 86.1234 147.027 H 0 **** 0.053
36468 H 139.077 85.9082 145.629 H 0 **** 0.053
36469 H 137.311 85.8545 145.397 H 0 **** 0.053
36470 H 135.057 88.3848 147.409 H 0 **** 0.053
36471 H 136.537 87.6286 148.044 H 0 **** 0.053
36472 H 135.604 86.831 146.735 H 0 **** 0.053
36473 H 133.026 90.6408 143.65 H 0 **** 0.41
36474 H 136.917 95.2543 142.451 H 0 **** 0.41
36475 H 124.197 92.4104 144.774 H 0 **** 0.053
36476 H 123.692 90.9536 143.923 H 0 **** 0.053
36477 H 123.596 92.5182 143.092 H 0 **** 0.053
36478 H 124.836 89.0157 143.808 H 0 **** 0.053
36479 H 125.681 88.4137 142.375 H 0 **** 0.053
36480 H 124.273 89.4668 142.176 H 0 **** 0.053
36481 C 116.581 98.561 131.461 C.2 0 **** 0
36482 C 115.548 98.2985 132.347 C.2 0 **** 0
36483 C 114.677 97.2492 132.104 C.2 0 **** 0
36484 C 114.862 96.4695 130.989 C.2 0 **** 0
36485 C 115.931 96.6905 130.128 C.2 0 **** 0
36486 C 116.798 97.7343 130.374 C.2 0 **** 0
36487 C 113.911 95.3304 130.682 C.3 0 **** -0.106
36488 C 112.659 95.1739 131.534 C.2 0 **** 0
36489 C 112.468 95.9473 132.645 C.2 0 **** 0
36490 C 113.523 96.9689 133.062 C.3 0 **** -0.106
36491 C 111.296 95.8003 133.394 C.2 0 **** 0
36492 C 110.293 94.9408 132.991 C.2 0 **** 0
36493 C 110.531 94.0834 131.923 C.2 0 **** 0
36494 C 111.707 94.2054 131.173 C.2 0 **** 0
36495 C 111.919 93.3889 130.073 C.2 0 **** -0.1268
36496 C 110.98 92.5217 129.555 C.2 0 **** 0
36497 C 109.726 92.5314 130.263 C.2 0 **** 0
36498 C 109.613 93.114 131.528 C.2 0 **** 0.042
36499 C 108.553 91.6763 129.745 C.3 0 **** 0
36500 C 108.78 90.8018 128.509 C.3 0 **** 0
36501 C 110.218 90.6928 127.963 C.2 0 **** 0
36502 C 111.252 91.554 128.456 C.2 0 **** 0
36503 C 107.533 90.6198 127.618 C.3 0 **** -0.106
36504 C 106.814 91.9478 127.361 C.3 0 **** -0.053
36505 C 106.316 92.6009 128.686 C.3 0 **** -0.053
36506 C 107.08 92.1073 129.942 C.3 0 **** -0.106
36507 C 112.546 91.3177 127.949 C.2 0 **** 0.042
36508 C 112.771 90.3308 127.013 C.2 0 **** 0.052
36509 C 111.748 89.4996 126.581 C.2 0 **** 0.052
36510 C 110.491 89.6423 127.106 C.2 0 **** 0.042
36511 C 111.969 88.4059 125.569 C.2 0 **** 0.367
36512 C 113.357 88.2591 125.042 C.2 0 **** 0
36513 C 114.353 89.0474 125.465 C.2 0 **** 0
36514 C 114.159 90.1303 126.459 C.2 0 **** 0.367
36515 C 115.754 88.8995 124.917 C.3 0 **** -0.106
36516 C 115.672 88.5082 123.42 C.3 0 **** -0.106
36517 C 114.776 87.2851 123.223 C.2 0 **** 0
36518 C 113.615 87.1661 124.02 C.2 0 **** 0.2405
36519 N 112.759 86.13 123.888 N.2 0 **** -0.481
36520 C 112.983 85.255 122.913 C.2 0 **** 0.2405
36521 C 114.142 85.3028 122.103 C.2 0 **** 0
36522 C 115.041 86.3243 122.279 C.2 0 **** 0
36523 C 116.294 86.4379 121.419 C.3 0 **** -0.106
36524 C 116.62 85.1409 120.669 C.3 0 **** -0.106
36525 C 115.362 84.5633 120.029 C.3 0 **** -0.106
36526 C 114.355 84.1719 121.128 C.3 0 **** -0.053
36527 C 112.996 83.7353 120.519 C.3 0 **** -0.106
36528 C 112.01 83.4565 121.622 C.2 0 **** 0
36529 C 112.009 84.2335 122.782 C.2 0 **** 0
36530 C 111.047 83.9839 123.778 C.2 0 **** -0.1268
36531 C 110.102 82.9955 123.583 C.2 0 **** -0.1268
36532 C 110.07 82.2498 122.418 C.2 0 **** 0
36533 C 111.021 82.498 121.427 C.2 0 **** 0
36534 C 117.992 97.9554 129.48 C.3 0 **** -0.106
36535 C 117.611 98.7916 128.241 C.3 0 **** -0.159
36536 C 117.466 99.7545 131.7 C.3 0 **** -0.159
36537 C 116.076 95.7773 128.933 C.3 0 **** -0.159
36538 C 115.363 99.1584 133.574 C.3 0 **** -0.159
36539 C 111.145 96.6642 134.646 C.3 0 **** -0.159
36540 C 108.988 95.0043 133.748 C.3 0 **** -0.159
36541 O 108.55 92.778 132.318 O.3 0 **** -0.452
36542 C 104.838 92.3399 128.984 C.3 0 **** -0.159
36543 C 105.698 91.6857 126.342 C.3 0 **** -0.159
36544 O 109.462 88.7887 126.813 O.3 0 **** -0.452
36545 O 113.598 92.0531 128.388 O.3 0 **** -0.452
36546 O 115.068 90.8099 126.811 O.2 0 **** -0.419
36547 O 111.059 87.7288 125.187 O.2 0 **** -0.419
36548 C 110.964 81.7129 120.128 C.3 0 **** -0.159
36549 C 108.984 81.2045 122.263 C.3 0 **** -0.159
36550 H 113.578 95.4567 129.626 H 0 **** 0.053
36551 H 114.486 94.3734 130.722 H 0 **** 0.053
36552 H 113.959 96.6456 134.038 H 0 **** 0.053
36553 H 113.002 97.9327 133.255 H 0 **** 0.053
36554 H 112.87 93.5117 129.606 H 0 **** 0.1268
36555 H 107.791 90.1727 126.656 H 0 **** 0.053
36556 H 106.876 89.9287 128.151 H 0 **** 0.053
36557 H 107.539 92.6377 126.893 H 0 **** 0.053
36558 H 106.467 93.6845 128.593 H 0 **** 0.053
36559 H 106.596 91.2022 130.321 H 0 **** 0.053
36560 H 106.99 92.8766 130.719 H 0 **** 0.053
36561 H 116.351 89.824 125.018 H 0 **** 0.053
36562 H 116.278 88.1188 125.496 H 0 **** 0.053
36563 H 116.706 88.3573 123.065 H 0 **** 0.053
36564 H 115.279 89.375 122.847 H 0 **** 0.053
36565 H 116.159 87.2526 120.682 H 0 **** 0.053
36566 H 117.178 86.7051 122.026 H 0 **** 0.053
36567 H 117.039 84.3965 121.372 H 0 **** 0.053
36568 H 117.4 85.3212 119.906 H 0 **** 0.053
36569 H 115.598 83.6807 119.405 H 0 **** 0.053
36570 H 114.906 85.3149 119.359 H 0 **** 0.053
36571 H 114.782 83.2977 121.677 H 0 **** 0.053
36572 H 112.615 84.5494 119.862 H 0 **** 0.053
36573 H 113.174 82.8581 119.86 H 0 **** 0.053
36574 H 111.034 84.5691 124.706 H 0 **** 0.1268
36575 H 109.349 82.808 124.365 H 0 **** 0.1268
36576 H 118.45 97.0027 129.15 H 0 **** 0.053
36577 H 118.818 98.4622 130.007 H 0 **** 0.053
36578 H 117.201 99.7719 128.535 H 0 **** 0.053
36579 H 116.853 98.2784 127.626 H 0 **** 0.053
36580 H 118.488 98.9825 127.591 H 0 **** 0.053
36581 H 116.945 100.586 132.211 H 0 **** 0.053
36582 H 117.852 100.201 130.765 H 0 **** 0.053
36583 H 118.342 99.4936 132.329 H 0 **** 0.053
36584 H 115.195 95.847 128.256 H 0 **** 0.053
36585 H 116.17 94.7121 129.235 H 0 **** 0.053
36586 H 116.947 95.9836 128.292 H 0 **** 0.053
36587 H 114.838 98.6426 134.401 H 0 **** 0.053
36588 H 114.777 100.076 133.346 H 0 **** 0.053
36589 H 116.326 99.4822 134.013 H 0 **** 0.053
36590 H 110.564 96.1626 135.44 H 0 **** 0.053
36591 H 110.646 97.6351 134.424 H 0 **** 0.053
36592 H 112.116 96.9068 135.135 H 0 **** 0.053
36593 H 108.108 94.9537 133.069 H 0 **** 0.053
36594 H 108.813 95.9638 134.307 H 0 **** 0.053
36595 H 108.873 94.1824 134.502 H 0 **** 0.053
36596 H 108.188 91.9371 132.026 H 0 **** 0.41
36597 H 104.184 92.7851 128.222 H 0 **** 0.053
36598 H 104.556 92.7828 129.958 H 0 **** 0.053
36599 H 104.625 91.2544 129.043 H 0 **** 0.053
36600 H 106.117 91.2944 125.396 H 0 **** 0.053
36601 H 105.149 92.6084 126.103 H 0 **** 0.053
36602 H 104.977 90.9301 126.713 H 0 **** 0.053
36603 H 109.753 88.1955 126.104 H 0 **** 0.41
36604 H 114.402 91.8006 127.91 H 0 **** 0.41
36605 H 111.003 82.3822 119.248 H 0 **** 0.053
36606 H 110.037 81.1205 120.007 H 0 **** 0.053
36607 H 111.806 80.9954 120.044 H 0 **** 0.053
36608 H 108.309 81.4344 121.418 H 0 **** 0.053
36609 H 108.346 81.1312 123.161 H 0 **** 0.053
36610 H 109.403 80.1975 122.092 H 0 **** 0.053
36611 C 132.435 75.9134 135.93 C.2 0 **** 0
36612 C 133.167 74.7537 135.728 C.2 0 **** 0
36613 C 134.147 74.3857 136.637 C.2 0 **** 0
36614 C 134.369 75.1732 137.739 C.2 0 **** 0
36615 C 133.602 76.3071 137.976 C.2 0 **** 0
36616 C 132.625 76.6706 137.072 C.2 0 **** 0
36617 C 135.449 74.8092 138.738 C.3 0 **** -0.106
36618 C 136.389 73.6562 138.412 C.2 0 **** 0
36619 C 136.174 72.8681 137.316 C.2 0 **** 0
36620 C 134.97 73.1205 136.411 C.3 0 **** -0.106
36621 C 137.069 71.8329 137.026 C.2 0 **** 0
36622 C 138.207 71.6375 137.784 C.2 0 **** 0
36623 C 138.37 72.3706 138.954 C.2 0 **** 0
36624 C 137.474 73.3991 139.268 C.2 0 **** 0
36625 C 137.668 74.1687 140.405 C.2 0 **** -0.1268
36626 C 138.782 74.0917 141.216 C.2 0 **** 0
36627 C 139.754 73.1248 140.778 C.2 0 **** 0
36628 C 139.432 72.1533 139.826 C.2 0 **** 0.042
36629 C 141.089 72.9899 141.537 C.3 0 **** 0
36630 C 141.315 73.8654 142.772 C.3 0 **** 0
36631 C 140.125 74.7005 143.286 C.2 0 **** 0
36632 C 138.93 74.8236 142.504 C.2 0 **** 0
36633 C 142.784 74.2776 143.003 C.3 0 **** -0.106
36634 C 143.449 74.7737 141.715 C.3 0 **** -0.053
36635 C 143.469 73.6702 140.614 C.3 0 **** -0.053
36636 C 142.396 72.57 140.823 C.3 0 **** -0.106
36637 C 137.874 75.542 143.101 C.2 0 **** 0.042
36638 C 138.018 76.1081 144.349 C.2 0 **** 0.052
36639 C 139.181 75.9432 145.086 C.2 0 **** 0.052
36640 C 140.204 75.187 144.578 C.2 0 **** 0.042
36641 C 139.361 76.5409 146.457 C.2 0 **** 0.367
36642 C 138.216 77.3331 146.992 C.2 0 **** 0
36643 C 137.084 77.4833 146.294 C.2 0 **** 0
36644 C 136.884 76.9057 144.943 C.2 0 **** 0.367
36645 C 135.932 78.2967 146.838 C.3 0 **** -0.106
36646 C 136.495 79.4917 147.647 C.3 0 **** -0.106
36647 C 137.495 79.016 148.701 C.2 0 **** 0
36648 C 138.363 77.9502 148.371 C.2 0 **** 0.2405
36649 N 139.294 77.4918 149.236 N.2 0 **** -0.481
36650 C 139.434 78.1245 150.396 C.2 0 **** 0.2405
36651 C 138.571 79.1698 150.8 C.2 0 **** 0
36652 C 137.598 79.6062 149.936 C.2 0 **** 0
36653 C 136.665 80.7536 150.305 C.3 0 **** -0.106
36654 C 136.676 81.0752 151.804 C.3 0 **** -0.106
36655 C 138.105 81.1135 152.331 C.3 0 **** -0.106
36656 C 138.733 79.7096 152.202 C.3 0 **** -0.053
36657 C 140.23 79.7467 152.563 C.3 0 **** -0.106
36658 C 140.878 78.4153 152.312 C.2 0 **** 0
36659 C 140.475 77.6372 151.227 C.2 0 **** 0
36660 C 141.108 76.4037 150.988 C.2 0 **** -0.1268
36661 C 142.138 75.9931 151.813 C.2 0 **** -0.1268
36662 C 142.577 76.7829 152.861 C.2 0 **** 0
36663 C 141.954 78.0097 153.095 C.2 0 **** 0
36664 C 131.75 77.8679 137.34 C.3 0 **** -0.106
36665 C 132.431 79.1707 136.87 C.3 0 **** -0.159
36666 C 131.428 76.3401 134.894 C.3 0 **** -0.159
36667 C 133.896 77.1115 139.222 C.3 0 **** -0.159
36668 C 132.907 73.8925 134.516 C.3 0 **** -0.159
36669 C 136.766 70.9586 135.809 C.3 0 **** -0.159
36670 C 139.21 70.6315 137.271 C.3 0 **** -0.159
36671 O 140.224 71.0452 139.719 O.3 0 **** -0.452
36672 C 144.8 72.9212 140.516 C.3 0 **** -0.159
36673 C 144.839 75.308 142.082 C.3 0 **** -0.159
36674 O 141.333 74.8883 145.293 O.3 0 **** -0.452
36675 O 136.687 75.6759 142.456 O.3 0 **** -0.452
36676 O 135.865 77.0619 144.353 O.2 0 **** -0.419
36677 O 140.392 76.4159 147.053 O.2 0 **** -0.419
36678 C 142.465 78.898 154.218 C.3 0 **** -0.159
36679 C 143.732 76.277 153.704 C.3 0 **** -0.159
36680 H 136.079 75.717 138.886 H 0 **** 0.053
36681 H 134.96 74.5976 139.721 H 0 **** 0.053
36682 H 134.282 72.2445 136.49 H 0 **** 0.053
36683 H 135.336 73.1375 135.36 H 0 **** 0.053
36684 H 136.899 74.8829 140.594 H 0 **** 0.1268
36685 H 142.866 75.0605 143.759 H 0 **** 0.053
36686 H 143.295 73.387 143.376 H 0 **** 0.053
36687 H 142.853 75.6229 141.334 H 0 **** 0.053
36688 H 143.276 74.1641 139.652 H 0 **** 0.053
36689 H 142.805 71.7914 141.473 H 0 **** 0.053
36690 H 142.188 72.1091 139.849 H 0 **** 0.053
36691 H 135.267 78.6799 146.042 H 0 **** 0.053
36692 H 135.314 77.6465 147.482 H 0 **** 0.053
36693 H 135.634 80.0339 148.073 H 0 **** 0.053
36694 H 136.98 80.2009 146.943 H 0 **** 0.053
36695 H 136.961 81.6605 149.743 H 0 **** 0.053
36696 H 135.622 80.5317 150.018 H 0 **** 0.053
36697 H 136.117 80.2971 152.357 H 0 **** 0.053
36698 H 136.158 82.032 152 H 0 **** 0.053
36699 H 138.14 81.4444 153.386 H 0 **** 0.053
36700 H 138.696 81.8452 151.75 H 0 **** 0.053
36701 H 138.211 79.0331 152.918 H 0 **** 0.053
36702 H 140.661 80.5128 151.893 H 0 **** 0.053
36703 H 140.354 80.1145 153.602 H 0 **** 0.053
36704 H 140.793 75.7606 150.155 H 0 **** 0.1268
36705 H 142.624 75.0221 151.625 H 0 **** 0.1268
36706 H 131.487 77.9618 138.412 H 0 **** 0.053
36707 H 130.766 77.7836 136.846 H 0 **** 0.053
36708 H 132.659 79.1318 135.792 H 0 **** 0.053
36709 H 133.375 79.3489 137.41 H 0 **** 0.053
36710 H 131.783 80.0544 137.038 H 0 **** 0.053
36711 H 131.702 76.0218 133.869 H 0 **** 0.053
36712 H 131.327 77.4396 134.82 H 0 **** 0.053
36713 H 130.414 75.9318 135.103 H 0 **** 0.053
36714 H 134.934 77.5127 139.213 H 0 **** 0.053
36715 H 133.792 76.4997 140.144 H 0 **** 0.053
36716 H 133.251 77.9895 139.372 H 0 **** 0.053
36717 H 133.19 72.8317 134.658 H 0 **** 0.053
36718 H 133.467 74.2571 133.626 H 0 **** 0.053
36719 H 131.835 73.8617 134.242 H 0 **** 0.053
36720 H 137.112 69.9179 135.938 H 0 **** 0.053
36721 H 137.238 71.3588 134.882 H 0 **** 0.053
36722 H 135.677 70.8573 135.598 H 0 **** 0.053
36723 H 140.256 70.994 137.376 H 0 **** 0.053
36724 H 139.135 70.4091 136.172 H 0 **** 0.053
36725 H 139.148 69.6404 137.792 H 0 **** 0.053
36726 H 140.718 70.9243 140.534 H 0 **** 0.41
36727 H 145.621 73.5879 140.22 H 0 **** 0.053
36728 H 144.737 72.1196 139.755 H 0 **** 0.053
36729 H 145.064 72.4408 141.479 H 0 **** 0.053
36730 H 144.758 76.1384 142.808 H 0 **** 0.053
36731 H 145.366 75.6935 141.196 H 0 **** 0.053
36732 H 145.465 74.5248 142.554 H 0 **** 0.053
36733 H 141.314 75.4009 146.114 H 0 **** 0.41
36734 H 136.087 76.231 142.975 H 0 **** 0.41
36735 H 142.651 79.9308 153.869 H 0 **** 0.053
36736 H 143.425 78.5581 154.651 H 0 **** 0.053
36737 H 141.744 78.9493 155.059 H 0 **** 0.053
36738 H 144.615 76.9374 153.633 H 0 **** 0.053
36739 H 144.067 75.2722 153.391 H 0 **** 0.053
36740 H 143.457 76.196 154.77 H 0 **** 0.053
36741 C 115.101 -3.03318 118.989 C.2 0 **** 0
36742 C 115.061 -4.05788 118.057 C.2 0 **** 0
36743 C 115.665 -3.89272 116.82 C.2 0 **** 0
36744 C 116.311 -2.71397 116.541 C.2 0 **** 0
36745 C 116.403 -1.70436 117.492 C.2 0 **** 0
36746 C 115.803 -1.8712 118.723 C.2 0 **** 0
36747 C 116.961 -2.49504 115.19 C.3 0 **** -0.106
36748 C 116.741 -3.53097 114.096 C.2 0 **** 0
36749 C 116.097 -4.70653 114.366 C.2 0 **** 0
36750 C 115.608 -5.00855 115.78 C.3 0 **** -0.106
36751 C 115.885 -5.62802 113.335 C.2 0 **** 0
36752 C 116.246 -5.34165 112.034 C.2 0 **** 0
36753 C 116.99 -4.19495 111.779 C.2 0 **** 0
36754 C 117.227 -3.27021 112.803 C.2 0 **** 0
36755 C 117.919 -2.09858 112.537 C.2 0 **** -0.1268
36756 C 118.297 -1.68749 111.275 C.2 0 **** 0
36757 C 117.905 -2.59335 110.227 C.2 0 **** 0
36758 C 117.486 -3.89494 110.513 C.2 0 **** 0.042
36759 C 118.184 -2.22211 108.757 C.3 0 **** 0
36760 C 118.919 -0.911567 108.464 C.3 0 **** 0
36761 C 119.491 -0.12829 109.662 C.2 0 **** 0
36762 C 119.151 -0.497723 111.005 C.2 0 **** 0
36763 C 118.506 -0.229523 107.142 C.3 0 **** -0.106
36764 C 116.984 -0.182748 106.973 C.3 0 **** -0.053
36765 C 116.362 -1.61201 106.943 C.3 0 **** -0.053
36766 C 117.259 -2.68921 107.607 C.3 0 **** -0.106
36767 C 119.79 0.231913 112.027 C.2 0 **** 0.042
36768 C 120.665 1.2549 111.727 C.2 0 **** 0.052
36769 C 120.99 1.56419 110.415 C.2 0 **** 0.052
36770 C 120.452 0.829508 109.392 C.2 0 **** 0.042
36771 C 121.951 2.66817 110.059 C.2 0 **** 0.367
36772 C 122.542 3.42754 111.2 C.2 0 **** 0
36773 C 122.245 3.12469 112.469 C.2 0 **** 0
36774 C 121.302 2.04399 112.842 C.2 0 **** 0.367
36775 C 122.84 3.90526 113.618 C.3 0 **** -0.106
36776 C 122.982 5.39018 113.2 C.3 0 **** -0.106
36777 C 123.743 5.51676 111.88 C.2 0 **** 0
36778 C 123.515 4.54709 110.877 C.2 0 **** 0.2405
36779 N 124.13 4.60171 109.676 N.2 0 **** -0.481
36780 C 124.893 5.65786 109.413 C.2 0 **** 0.2405
36781 C 125.184 6.64425 110.384 C.2 0 **** 0
36782 C 124.607 6.55262 111.626 C.2 0 **** 0
36783 C 124.867 7.59846 112.703 C.3 0 **** -0.106
36784 C 126.087 8.47667 112.397 C.3 0 **** -0.106
36785 C 126.064 8.93536 110.943 C.3 0 **** -0.106
36786 C 126.181 7.71338 110.012 C.3 0 **** -0.053
36787 C 125.994 8.11536 108.525 C.3 0 **** -0.106
36788 C 126.017 6.88468 107.658 C.2 0 **** 0
36789 C 125.449 5.69184 108.109 C.2 0 **** 0
36790 C 125.441 4.56849 107.263 C.2 0 **** -0.1268
36791 C 125.969 4.66834 105.99 C.2 0 **** -0.1268
36792 C 126.496 5.85876 105.521 C.2 0 **** 0
36793 C 126.501 6.97481 106.357 C.2 0 **** 0
36794 C 115.937 -0.807931 119.783 C.3 0 **** -0.106
36795 C 114.871 0.293551 119.603 C.3 0 **** -0.159
36796 C 114.374 -3.19851 120.299 C.3 0 **** -0.159
36797 C 117.147 -0.443921 117.114 C.3 0 **** -0.159
36798 C 114.354 -5.35177 118.379 C.3 0 **** -0.159
36799 C 115.191 -6.94209 113.695 C.3 0 **** -0.159
36800 C 115.792 -6.3074 110.965 C.3 0 **** -0.159
36801 O 117.493 -4.82685 109.514 O.3 0 **** -0.452
36802 C 116.084 -2.13408 105.532 C.3 0 **** -0.159
36803 C 116.678 0.651529 105.724 C.3 0 **** -0.159
36804 O 120.814 1.00148 108.083 O.3 0 **** -0.452
36805 O 119.565 -0.0726369 113.33 O.3 0 **** -0.452
36806 O 121.063 1.80399 113.982 O.2 0 **** -0.419
36807 O 122.184 2.93558 108.916 O.2 0 **** -0.419
36808 C 127.039 8.29598 105.833 C.3 0 **** -0.159
36809 C 127.028 5.89911 104.102 C.3 0 **** -0.159
36810 H 116.589 -1.51923 114.8 H 0 **** 0.053
36811 H 118.061 -2.37648 115.345 H 0 **** 0.053
36812 H 116.19 -5.87559 116.175 H 0 **** 0.053
36813 H 114.551 -5.34855 115.706 H 0 **** 0.053
36814 H 118.106 -1.48966 113.392 H 0 **** 0.1268
36815 H 118.894 0.788994 107.08 H 0 **** 0.053
36816 H 118.96 -0.817598 106.341 H 0 **** 0.053
36817 H 116.565 0.352735 107.844 H 0 **** 0.053
36818 H 115.412 -1.56663 107.492 H 0 **** 0.053
36819 H 117.956 -3.08241 106.861 H 0 **** 0.053
36820 H 116.616 -3.51852 107.925 H 0 **** 0.053
36821 H 122.229 3.84495 114.537 H 0 **** 0.053
36822 H 123.826 3.47409 113.865 H 0 **** 0.053
36823 H 123.465 5.92204 114.037 H 0 **** 0.053
36824 H 121.967 5.83213 113.108 H 0 **** 0.053
36825 H 123.977 8.2483 112.804 H 0 **** 0.053
36826 H 125.03 7.13089 113.691 H 0 **** 0.053
36827 H 127.016 7.90278 112.578 H 0 **** 0.053
36828 H 126.12 9.34477 113.082 H 0 **** 0.053
36829 H 126.885 9.64712 110.733 H 0 **** 0.053
36830 H 125.118 9.46941 110.735 H 0 **** 0.053
36831 H 127.213 7.30057 110.13 H 0 **** 0.053
36832 H 125.021 8.6457 108.412 H 0 **** 0.053
36833 H 126.784 8.85154 108.261 H 0 **** 0.053
36834 H 125.014 3.6151 107.598 H 0 **** 0.1268
36835 H 125.955 3.78598 105.33 H 0 **** 0.1268
36836 H 116.942 -0.343221 119.784 H 0 **** 0.053
36837 H 115.85 -1.2223 120.803 H 0 **** 0.053
36838 H 113.853 -0.127969 119.65 H 0 **** 0.053
36839 H 114.981 0.805957 118.633 H 0 **** 0.053
36840 H 114.944 1.06675 120.394 H 0 **** 0.053
36841 H 113.48 -3.84645 120.216 H 0 **** 0.053
36842 H 113.982 -2.24251 120.695 H 0 **** 0.053
36843 H 115.026 -3.63767 121.086 H 0 **** 0.053
36844 H 116.667 0.0709837 116.252 H 0 **** 0.053
36845 H 118.198 -0.655711 116.822 H 0 **** 0.053
36846 H 117.205 0.317338 117.906 H 0 **** 0.053
36847 H 114.733 -6.2185 117.804 H 0 **** 0.053
36848 H 113.263 -5.2844 118.174 H 0 **** 0.053
36849 H 114.473 -5.64589 119.44 H 0 **** 0.053
36850 H 115.532 -7.78635 113.07 H 0 **** 0.053
36851 H 114.084 -6.87018 113.591 H 0 **** 0.053
36852 H 115.394 -7.2779 114.738 H 0 **** 0.053
36853 H 115.422 -5.7821 110.057 H 0 **** 0.053
36854 H 114.915 -6.94941 111.253 H 0 **** 0.053
36855 H 116.597 -7.01411 110.636 H 0 **** 0.053
36856 H 118.091 -4.54459 108.817 H 0 **** 0.41
36857 H 115.334 -1.52208 105.013 H 0 **** 0.053
36858 H 115.692 -3.16843 105.572 H 0 **** 0.053
36859 H 117.007 -2.15615 104.92 H 0 **** 0.053
36860 H 117.077 1.6777 105.832 H 0 **** 0.053
36861 H 115.594 0.734886 105.553 H 0 **** 0.053
36862 H 117.147 0.216436 104.818 H 0 **** 0.053
36863 H 121.374 1.79072 108.025 H 0 **** 0.41
36864 H 120.045 0.54467 113.902 H 0 **** 0.41
36865 H 126.329 9.12386 106.018 H 0 **** 0.053
36866 H 127.219 8.29954 104.741 H 0 **** 0.053
36867 H 128.004 8.56505 106.31 H 0 **** 0.053
36868 H 126.457 6.60274 103.469 H 0 **** 0.053
36869 H 126.967 4.91414 103.607 H 0 **** 0.053
36870 H 128.089 6.20235 104.069 H 0 **** 0.053
36871 C 107.128 70.4868 174.105 C.2 0 **** 0
36872 C 106.806 69.1534 173.905 C.2 0 **** 0
36873 C 107.524 68.163 174.555 C.2 0 **** 0
36874 C 108.542 68.5206 175.405 C.2 0 **** 0
36875 C 108.834 69.8567 175.651 C.2 0 **** 0
36876 C 108.116 70.8414 175.005 C.2 0 **** 0
36877 C 109.361 67.4599 176.113 C.3 0 **** -0.106
36878 C 109.147 65.9999 175.737 C.2 0 **** 0
36879 C 108.136 65.6359 174.891 C.2 0 **** 0
36880 C 107.189 66.6918 174.326 C.3 0 **** -0.106
36881 C 107.98 64.2906 174.542 C.2 0 **** 0
36882 C 108.873 63.3309 174.977 C.2 0 **** 0
36883 C 109.836 63.6836 175.916 C.2 0 **** 0
36884 C 109.994 65.0237 176.29 C.2 0 **** 0
36885 C 110.991 65.3847 177.183 C.2 0 **** -0.1268
36886 C 111.962 64.5251 177.654 C.2 0 **** 0
36887 C 111.857 63.1873 177.132 C.2 0 **** 0
36888 C 110.698 62.751 176.485 C.2 0 **** 0.042
36889 C 112.925 62.1397 177.504 C.3 0 **** 0
36890 C 114.045 62.551 178.464 C.3 0 **** 0
36891 C 113.938 63.933 179.139 C.2 0 **** 0
36892 C 112.951 64.8798 178.71 C.2 0 **** 0
36893 C 115.396 61.851 178.206 C.3 0 **** -0.106
36894 C 115.768 61.8548 176.72 C.3 0 **** -0.053
36895 C 114.711 61.1009 175.857 C.3 0 **** -0.053
36896 C 113.32 60.9985 176.537 C.3 0 **** -0.106
36897 C 112.885 66.0799 179.446 C.2 0 **** 0.042
36898 C 113.751 66.3176 180.492 C.2 0 **** 0.052
36899 C 114.675 65.3646 180.895 C.2 0 **** 0.052
36900 C 114.72 64.1527 180.258 C.2 0 **** 0.042
36901 C 115.624 65.5925 182.042 C.2 0 **** 0.367
36902 C 115.526 66.912 182.733 C.2 0 **** 0
36903 C 114.627 67.8307 182.36 C.2 0 **** 0
36904 C 113.684 67.6284 181.234 C.2 0 **** 0.367
36905 C 114.541 69.1687 183.058 C.3 0 **** -0.106
36906 C 115.967 69.616 183.467 C.3 0 **** -0.106
36907 C 116.675 68.5226 184.268 C.2 0 **** 0
36908 C 116.467 67.1752 183.894 C.2 0 **** 0.2405
36909 N 117.076 66.1538 184.534 N.2 0 **** -0.481
36910 C 117.964 66.4488 185.478 C.2 0 **** 0.2405
36911 C 118.193 67.7737 185.917 C.2 0 **** 0
36912 C 117.527 68.8063 185.306 C.2 0 **** 0
36913 C 117.753 70.2545 185.722 C.3 0 **** -0.106
36914 C 118.448 70.3817 187.083 C.3 0 **** -0.106
36915 C 119.627 69.4184 187.172 C.3 0 **** -0.106
36916 C 119.117 67.9669 187.094 C.3 0 **** -0.053
36917 C 120.293 66.9582 187.013 C.3 0 **** -0.106
36918 C 119.756 65.5625 186.838 C.2 0 **** 0
36919 C 118.62 65.3345 186.059 C.2 0 **** 0
36920 C 118.166 64.0168 185.872 C.2 0 **** -0.1268
36921 C 118.864 62.9666 186.436 C.2 0 **** -0.1268
36922 C 120.014 63.1812 187.175 C.2 0 **** 0
36923 C 120.469 64.4868 187.358 C.2 0 **** 0
36924 C 108.384 72.2947 175.3 C.3 0 **** -0.106
36925 C 109.555 72.8281 174.448 C.3 0 **** -0.159
36926 C 106.388 71.5477 173.332 C.3 0 **** -0.159
36927 C 109.957 70.1693 176.613 C.3 0 **** -0.159
36928 C 105.679 68.7741 172.976 C.3 0 **** -0.159
36929 C 106.815 63.9304 173.621 C.3 0 **** -0.159
36930 C 108.74 61.9487 174.383 C.3 0 **** -0.159
36931 O 110.482 61.4086 176.35 O.3 0 **** -0.452
36932 C 115.102 59.6603 175.522 C.3 0 **** -0.159
36933 C 117.188 61.2894 176.592 C.3 0 **** -0.159
36934 O 115.524 63.1251 180.672 O.3 0 **** -0.452
36935 O 111.954 67.0187 179.144 O.3 0 **** -0.452
36936 O 112.898 68.468 180.933 O.2 0 **** -0.419
36937 O 116.435 64.7661 182.343 O.2 0 **** -0.419
36938 C 121.756 64.7257 188.131 C.3 0 **** -0.159
36939 C 120.743 61.9766 187.736 C.3 0 **** -0.159
36940 H 110.434 67.6951 175.927 H 0 **** 0.053
36941 H 109.198 67.5675 177.213 H 0 **** 0.053
36942 H 106.168 66.504 174.739 H 0 **** 0.053
36943 H 107.117 66.5278 173.228 H 0 **** 0.053
36944 H 110.992 66.416 177.455 H 0 **** 0.1268
36945 H 116.204 62.323 178.767 H 0 **** 0.053
36946 H 115.281 60.8264 178.567 H 0 **** 0.053
36947 H 115.796 62.9066 176.382 H 0 **** 0.053
36948 H 114.597 61.659 174.919 H 0 **** 0.053
36949 H 113.297 60.1065 177.169 H 0 **** 0.053
36950 H 112.567 60.8631 175.751 H 0 **** 0.053
36951 H 114.084 69.9512 182.425 H 0 **** 0.053
36952 H 113.896 69.0622 183.947 H 0 **** 0.053
36953 H 115.866 70.5673 184.018 H 0 **** 0.053
36954 H 116.541 69.8591 182.548 H 0 **** 0.053
36955 H 118.371 70.7625 184.957 H 0 **** 0.053
36956 H 116.801 70.8125 185.778 H 0 **** 0.053
36957 H 117.731 70.1471 187.892 H 0 **** 0.053
36958 H 118.779 71.4233 187.252 H 0 **** 0.053
36959 H 120.196 69.5663 188.11 H 0 **** 0.053
36960 H 120.329 69.6099 186.34 H 0 **** 0.053
36961 H 118.55 67.7596 188.034 H 0 **** 0.053
36962 H 120.944 67.2286 186.151 H 0 **** 0.053
36963 H 120.917 67.0754 187.926 H 0 **** 0.053
36964 H 117.267 63.8109 185.277 H 0 **** 0.1268
36965 H 118.505 61.9363 186.282 H 0 **** 0.1268
36966 H 108.605 72.4699 176.372 H 0 **** 0.053
36967 H 107.497 72.9279 175.12 H 0 **** 0.053
36968 H 109.345 72.7183 173.372 H 0 **** 0.053
36969 H 110.491 72.2895 174.669 H 0 **** 0.053
36970 H 109.743 73.9038 174.64 H 0 **** 0.053
36971 H 106.042 71.1964 172.34 H 0 **** 0.053
36972 H 107.015 72.4307 173.106 H 0 **** 0.053
36973 H 105.491 71.9141 173.88 H 0 **** 0.053
36974 H 110.93 69.7667 176.252 H 0 **** 0.053
36975 H 109.776 69.7276 177.617 H 0 **** 0.053
36976 H 110.137 71.2405 176.788 H 0 **** 0.053
36977 H 105.223 67.7924 173.21 H 0 **** 0.053
36978 H 106.019 68.7247 171.917 H 0 **** 0.053
36979 H 104.836 69.4903 173.019 H 0 **** 0.053
36980 H 106.411 62.9222 173.822 H 0 **** 0.053
36981 H 107.106 63.9692 172.546 H 0 **** 0.053
36982 H 105.934 64.6022 173.74 H 0 **** 0.053
36983 H 109.729 61.5047 174.132 H 0 **** 0.053
36984 H 108.194 61.9081 173.401 H 0 **** 0.053
36985 H 108.214 61.2256 175.059 H 0 **** 0.053
36986 H 111.002 60.9339 177.004 H 0 **** 0.41
36987 H 116.008 59.619 174.903 H 0 **** 0.053
36988 H 114.293 59.1621 174.954 H 0 **** 0.053
36989 H 115.274 59.0653 176.44 H 0 **** 0.053
36990 H 117.907 61.9072 177.163 H 0 **** 0.053
36991 H 117.522 61.2772 175.544 H 0 **** 0.053
36992 H 117.254 60.2598 176.997 H 0 **** 0.053
36993 H 116.112 63.4612 181.366 H 0 **** 0.41
36994 H 112.075 67.7987 179.706 H 0 **** 0.41
36995 H 122.446 65.3863 187.573 H 0 **** 0.053
36996 H 122.33 63.8014 188.332 H 0 **** 0.053
36997 H 121.562 65.1946 189.117 H 0 **** 0.053
36998 H 121.759 61.8755 187.312 H 0 **** 0.053
36999 H 120.217 61.0315 187.514 H 0 **** 0.053
37000 H 120.842 62.0305 188.834 H 0 **** 0.053
37001 C 117.385 70.4681 129.156 C.2 0 **** 0
37002 C 118.566 70.1857 129.824 C.2 0 **** 0
37003 C 118.842 68.8871 130.223 C.2 0 **** 0
37004 C 117.941 67.8907 129.937 C.2 0 **** 0
37005 C 116.783 68.1573 129.218 C.2 0 **** 0
37006 C 116.512 69.4494 128.818 C.2 0 **** 0
37007 C 118.203 66.4659 130.383 C.3 0 **** -0.106
37008 C 119.391 66.192 131.294 C.2 0 **** 0
37009 C 120.29 67.1785 131.584 C.2 0 **** 0
37010 C 120.131 68.5706 130.977 C.3 0 **** -0.106
37011 C 121.356 66.9043 132.446 C.2 0 **** 0
37012 C 121.48 65.6791 133.069 C.2 0 **** 0
37013 C 120.626 64.648 132.695 C.2 0 **** 0
37014 C 119.563 64.9001 131.82 C.2 0 **** 0
37015 C 118.676 63.8859 131.492 C.2 0 **** -0.1268
37016 C 118.674 62.636 132.076 C.2 0 **** 0
37017 C 119.69 62.461 133.081 C.2 0 **** 0
37018 C 120.757 63.3562 133.196 C.2 0 **** 0.042
37019 C 119.753 61.1438 133.879 C.3 0 **** 0
37020 C 118.75 60.0387 133.538 C.3 0 **** 0
37021 C 117.855 60.2409 132.299 C.2 0 **** 0
37022 C 117.808 61.5091 131.633 C.2 0 **** 0
37023 C 118.327 59.1677 134.74 C.3 0 **** -0.106
37024 C 117.979 60.0154 135.967 C.3 0 **** -0.053
37025 C 119.196 60.8644 136.447 C.3 0 **** -0.053
37026 C 120.258 61.0989 135.341 C.3 0 **** -0.106
37027 C 117.02 61.564 130.465 C.2 0 **** 0.042
37028 C 116.323 60.4579 130.028 C.2 0 **** 0.052
37029 C 116.417 59.2404 130.685 C.2 0 **** 0.052
37030 C 117.232 59.1209 131.779 C.2 0 **** 0.042
37031 C 115.676 58.0132 130.222 C.2 0 **** 0.367
37032 C 114.821 58.1717 129.009 C.2 0 **** 0
37033 C 114.738 59.3394 128.36 C.2 0 **** 0
37034 C 115.457 60.5599 128.798 C.2 0 **** 0.367
37035 C 113.861 59.4944 127.139 C.3 0 **** -0.106
37036 C 112.59 58.6262 127.317 C.3 0 **** -0.106
37037 C 112.957 57.1824 127.66 C.2 0 **** 0
37038 C 114.06 56.9544 128.515 C.2 0 **** 0.2405
37039 N 114.432 55.711 128.886 N.2 0 **** -0.481
37040 C 113.671 54.6908 128.502 C.2 0 **** 0.2405
37041 C 112.574 54.8507 127.624 C.2 0 **** 0
37042 C 112.235 56.1105 127.199 C.2 0 **** 0
37043 C 111.049 56.3438 126.271 C.3 0 **** -0.106
37044 C 110.568 55.0592 125.586 C.3 0 **** -0.106
37045 C 110.475 53.9184 126.594 C.3 0 **** -0.106
37046 C 111.878 53.6009 127.146 C.3 0 **** -0.053
37047 C 111.81 52.5614 128.296 C.3 0 **** -0.106
37048 C 113.184 52.3516 128.875 C.2 0 **** 0
37049 C 114.075 53.4209 128.987 C.2 0 **** 0
37050 C 115.335 53.2097 129.574 C.2 0 **** -0.1268
37051 C 115.663 51.9575 130.057 C.2 0 **** -0.1268
37052 C 114.769 50.9031 129.988 C.2 0 **** 0
37053 C 113.518 51.1111 129.409 C.2 0 **** 0
37054 C 115.285 69.747 127.993 C.3 0 **** -0.106
37055 C 114.047 69.9478 128.891 C.3 0 **** -0.159
37056 C 117.054 71.8936 128.8 C.3 0 **** -0.159
37057 C 115.85 67.004 128.928 C.3 0 **** -0.159
37058 C 119.553 71.2839 130.134 C.3 0 **** -0.159
37059 C 122.351 68.0285 132.711 C.3 0 **** -0.159
37060 C 122.545 65.5523 134.133 C.3 0 **** -0.159
37061 O 121.877 62.9674 133.875 O.3 0 **** -0.452
37062 C 119.962 60.2403 137.615 C.3 0 **** -0.159
37063 C 117.419 59.0751 137.041 C.3 0 **** -0.159
37064 O 117.461 57.9274 132.409 O.3 0 **** -0.452
37065 O 116.948 62.7094 129.741 O.3 0 **** -0.452
37066 O 115.358 61.5798 128.196 O.2 0 **** -0.419
37067 O 115.746 56.9859 130.832 O.2 0 **** -0.419
37068 C 112.516 49.9692 129.37 C.3 0 **** -0.159
37069 C 115.189 49.5668 130.568 C.3 0 **** -0.159
37070 H 117.289 66.1173 130.918 H 0 **** 0.053
37071 H 118.302 65.8262 129.472 H 0 **** 0.053
37072 H 120.987 68.7526 130.284 H 0 **** 0.053
37073 H 120.231 69.3114 131.801 H 0 **** 0.053
37074 H 117.94 64.1572 130.77 H 0 **** 0.1268
37075 H 117.468 58.5408 134.496 H 0 **** 0.053
37076 H 119.176 58.5151 134.956 H 0 **** 0.053
37077 H 117.172 60.7113 135.678 H 0 **** 0.053
37078 H 118.808 61.8406 136.766 H 0 **** 0.053
37079 H 120.965 60.2639 135.342 H 0 **** 0.053
37080 H 120.821 62.005 135.597 H 0 **** 0.053
37081 H 113.561 60.5429 126.96 H 0 **** 0.053
37082 H 114.433 59.1714 126.252 H 0 **** 0.053
37083 H 111.998 58.7197 126.39 H 0 **** 0.053
37084 H 111.965 59.0709 128.12 H 0 **** 0.053
37085 H 110.21 56.7741 126.851 H 0 **** 0.053
37086 H 111.292 57.0753 125.48 H 0 **** 0.053
37087 H 111.277 54.7744 124.785 H 0 **** 0.053
37088 H 109.592 55.2264 125.092 H 0 **** 0.053
37089 H 110.039 53.0113 126.134 H 0 **** 0.053
37090 H 109.807 54.2084 127.424 H 0 **** 0.053
37091 H 112.473 53.1533 126.313 H 0 **** 0.053
37092 H 111.117 52.9356 129.083 H 0 **** 0.053
37093 H 111.357 51.6281 127.897 H 0 **** 0.053
37094 H 116.06 54.0289 129.66 H 0 **** 0.1268
37095 H 116.65 51.7999 130.52 H 0 **** 0.1268
37096 H 115.073 68.948 127.256 H 0 **** 0.053
37097 H 115.415 70.6437 127.361 H 0 **** 0.053
37098 H 114.203 70.7735 129.605 H 0 **** 0.053
37099 H 113.818 69.0384 129.471 H 0 **** 0.053
37100 H 113.145 70.1932 128.295 H 0 **** 0.053
37101 H 117.493 72.6283 129.502 H 0 **** 0.053
37102 H 115.969 72.1017 128.828 H 0 **** 0.053
37103 H 117.391 72.1558 127.777 H 0 **** 0.053
37104 H 115.46 66.5478 129.865 H 0 **** 0.053
37105 H 116.357 66.1949 128.359 H 0 **** 0.053
37106 H 114.956 67.264 128.342 H 0 **** 0.053
37107 H 120.594 70.9253 130.248 H 0 **** 0.053
37108 H 119.292 71.8208 131.071 H 0 **** 0.053
37109 H 119.611 72.0365 129.331 H 0 **** 0.053
37110 H 123.373 67.6495 132.891 H 0 **** 0.053
37111 H 122.058 68.6473 133.59 H 0 **** 0.053
37112 H 122.465 68.7258 131.85 H 0 **** 0.053
37113 H 122.182 64.9894 135.021 H 0 **** 0.053
37114 H 122.885 66.5262 134.58 H 0 **** 0.053
37115 H 123.473 65.0379 133.771 H 0 **** 0.053
37116 H 121.911 62.0077 133.912 H 0 **** 0.41
37117 H 119.338 60.1633 138.515 H 0 **** 0.053
37118 H 120.841 60.8597 137.876 H 0 **** 0.053
37119 H 120.337 59.2303 137.357 H 0 **** 0.053
37120 H 116.515 58.5564 136.673 H 0 **** 0.053
37121 H 117.136 59.6275 137.95 H 0 **** 0.053
37122 H 118.152 58.2905 137.318 H 0 **** 0.053
37123 H 116.86 57.2663 132.032 H 0 **** 0.41
37124 H 116.334 62.5956 129 H 0 **** 0.41
37125 H 111.53 50.282 129.761 H 0 **** 0.053
37126 H 112.813 49.0973 129.984 H 0 **** 0.053
37127 H 112.366 49.5888 128.339 H 0 **** 0.053
37128 H 114.546 49.2654 131.415 H 0 **** 0.053
37129 H 116.223 49.5868 130.953 H 0 **** 0.053
37130 H 115.15 48.7611 129.814 H 0 **** 0.053
37131 C 118.253 57.9955 163.528 C.2 0 **** 0
37132 C 117.872 59.3122 163.323 C.2 0 **** 0
37133 C 118.224 59.9592 162.149 C.2 0 **** 0
37134 C 118.932 59.2762 161.192 C.2 0 **** 0
37135 C 119.27 57.94 161.368 C.2 0 **** 0
37136 C 118.92 57.297 162.537 C.2 0 **** 0
37137 C 119.349 59.9631 159.907 C.3 0 **** -0.106
37138 C 119.128 61.4628 159.779 C.2 0 **** 0
37139 C 118.439 62.1494 160.738 C.2 0 **** 0
37140 C 117.832 61.4157 161.93 C.3 0 **** -0.106
37141 C 118.307 63.5361 160.628 C.2 0 **** 0
37142 C 118.877 64.2314 159.577 C.2 0 **** 0
37143 C 119.474 63.5175 158.543 C.2 0 **** 0
37144 C 119.63 62.1312 158.649 C.2 0 **** 0
37145 C 120.296 61.4293 157.656 C.2 0 **** -0.1268
37146 C 120.953 62.0177 156.596 C.2 0 **** 0
37147 C 120.885 63.4549 156.592 C.2 0 **** 0
37148 C 119.977 64.1371 157.405 C.2 0 **** 0.042
37149 C 121.647 64.2535 155.517 C.3 0 **** 0
37150 C 122.426 63.4773 154.451 C.3 0 **** 0
37151 C 122.25 61.9461 154.41 C.2 0 **** 0
37152 C 121.57 61.2617 155.471 C.2 0 **** 0
37153 C 123.703 64.1843 153.949 C.3 0 **** -0.106
37154 C 124.546 64.7367 155.102 C.3 0 **** -0.053
37155 C 123.759 65.7911 155.938 C.3 0 **** -0.053
37156 C 122.218 65.6652 155.797 C.3 0 **** -0.106
37157 C 121.397 59.8737 155.299 C.2 0 **** 0.042
37158 C 121.886 59.2323 154.181 C.2 0 **** 0.052
37159 C 122.514 59.9341 153.163 C.2 0 **** 0.052
37160 C 122.637 61.2951 153.253 C.2 0 **** 0.042
37161 C 123.048 59.26 151.928 C.2 0 **** 0.367
37162 C 122.873 57.7799 151.85 C.2 0 **** 0
37163 C 122.255 57.0979 152.821 C.2 0 **** 0
37164 C 121.722 57.7406 154.046 C.2 0 **** 0.367
37165 C 122.091 55.5972 152.741 C.3 0 **** -0.106
37166 C 123.34 54.9883 152.055 C.3 0 **** -0.106
37167 C 123.619 55.6738 150.718 C.2 0 **** 0
37168 C 123.401 57.0669 150.618 C.2 0 **** 0.2405
37169 N 123.648 57.7494 149.479 N.2 0 **** -0.481
37170 C 124.2 57.0921 148.464 C.2 0 **** 0.2405
37171 C 124.414 55.6944 148.492 C.2 0 **** 0
37172 C 124.105 54.992 149.63 C.2 0 **** 0
37173 C 124.337 53.4888 149.723 C.3 0 **** -0.106
37174 C 124.55 52.8328 148.353 C.3 0 **** -0.106
37175 C 125.521 53.6561 147.513 C.3 0 **** -0.106
37176 C 124.911 55.0415 147.226 C.3 0 **** -0.053
37177 C 125.93 55.9718 146.517 C.3 0 **** -0.106
37178 C 125.333 57.343 146.343 C.2 0 **** 0
37179 C 124.502 57.8821 147.327 C.2 0 **** 0
37180 C 123.994 59.1836 147.163 C.2 0 **** -0.1268
37181 C 124.347 59.9195 146.049 C.2 0 **** -0.1268
37182 C 125.204 59.4079 145.09 C.2 0 **** 0
37183 C 125.711 58.1188 145.252 C.2 0 **** 0
37184 C 119.233 55.8347 162.722 C.3 0 **** -0.106
37185 C 120.671 55.6347 163.245 C.3 0 **** -0.159
37186 C 117.933 57.3311 164.841 C.3 0 **** -0.159
37187 C 120.039 57.2547 160.262 C.3 0 **** -0.159
37188 C 117.084 60.0492 164.378 C.3 0 **** -0.159
37189 C 117.444 64.2494 161.674 C.3 0 **** -0.159
37190 C 118.767 65.7374 159.611 C.3 0 **** -0.159
37191 O 119.677 65.4354 157.112 O.3 0 **** -0.452
37192 C 124.081 67.2395 155.564 C.3 0 **** -0.159
37193 C 125.858 65.2688 154.512 C.3 0 **** -0.159
37194 O 123.146 62.0642 152.242 O.3 0 **** -0.452
37195 O 120.731 59.1458 156.231 O.3 0 **** -0.452
37196 O 121.175 57.1007 154.885 O.2 0 **** -0.419
37197 O 123.62 59.8852 151.083 O.2 0 **** -0.419
37198 C 126.687 57.5681 144.225 C.3 0 **** -0.159
37199 C 125.57 60.2867 143.911 C.3 0 **** -0.159
37200 H 120.443 59.7855 159.782 H 0 **** 0.053
37201 H 118.844 59.4506 159.051 H 0 **** 0.053
37202 H 116.721 61.4654 161.852 H 0 **** 0.053
37203 H 118.105 61.983 162.847 H 0 **** 0.053
37204 H 120.317 60.3724 157.797 H 0 **** 0.1268
37205 H 124.326 63.5113 153.356 H 0 **** 0.053
37206 H 123.366 64.9967 153.301 H 0 **** 0.053
37207 H 124.798 63.8928 155.77 H 0 **** 0.053
37208 H 124.024 65.6365 156.992 H 0 **** 0.053
37209 H 121.891 66.2499 154.933 H 0 **** 0.053
37210 H 121.76 66.1113 156.688 H 0 **** 0.053
37211 H 121.958 55.1283 153.733 H 0 **** 0.053
37212 H 121.18 55.3733 152.159 H 0 **** 0.053
37213 H 123.167 53.9021 151.964 H 0 **** 0.053
37214 H 124.21 55.098 152.738 H 0 **** 0.053
37215 H 125.225 53.2937 150.354 H 0 **** 0.053
37216 H 123.487 52.9777 150.21 H 0 **** 0.053
37217 H 123.585 52.7606 147.818 H 0 **** 0.053
37218 H 124.918 51.7965 148.474 H 0 **** 0.053
37219 H 125.759 53.1462 146.56 H 0 **** 0.053
37220 H 126.475 53.7769 148.057 H 0 **** 0.053
37221 H 124.045 54.8899 146.536 H 0 **** 0.053
37222 H 126.856 56.0326 147.133 H 0 **** 0.053
37223 H 126.225 55.4982 145.555 H 0 **** 0.053
37224 H 123.327 59.6256 147.914 H 0 **** 0.1268
37225 H 123.95 60.9403 145.929 H 0 **** 0.1268
37226 H 119.104 55.2583 161.785 H 0 **** 0.053
37227 H 118.53 55.3433 163.418 H 0 **** 0.053
37228 H 120.819 56.1531 164.207 H 0 **** 0.053
37229 H 121.416 56.0239 162.533 H 0 **** 0.053
37230 H 120.901 54.5629 163.41 H 0 **** 0.053
37231 H 117.901 58.044 165.689 H 0 **** 0.053
37232 H 118.693 56.5848 165.142 H 0 **** 0.053
37233 H 116.951 56.8085 164.816 H 0 **** 0.053
37234 H 121.027 57.7384 160.09 H 0 **** 0.053
37235 H 119.491 57.2849 159.296 H 0 **** 0.053
37236 H 120.268 56.1938 160.443 H 0 **** 0.053
37237 H 116.473 60.8799 163.975 H 0 **** 0.053
37238 H 117.75 60.4884 165.155 H 0 **** 0.053
37239 H 116.359 59.3945 164.897 H 0 **** 0.053
37240 H 116.885 65.107 161.255 H 0 **** 0.053
37241 H 118.049 64.6254 162.526 H 0 **** 0.053
37242 H 116.642 63.6026 162.103 H 0 **** 0.053
37243 H 119.718 66.2312 159.313 H 0 **** 0.053
37244 H 118.564 66.171 160.626 H 0 **** 0.053
37245 H 117.963 66.1395 158.94 H 0 **** 0.053
37246 H 119.885 65.606 156.19 H 0 **** 0.41
37247 H 125.131 67.4885 155.768 H 0 **** 0.053
37248 H 123.457 67.9389 156.152 H 0 **** 0.053
37249 H 123.873 67.4348 154.493 H 0 **** 0.053
37250 H 126.41 64.4607 153.996 H 0 **** 0.053
37251 H 126.517 65.6705 155.296 H 0 **** 0.053
37252 H 125.674 66.0641 153.762 H 0 **** 0.053
37253 H 123.497 61.4711 151.561 H 0 **** 0.41
37254 H 120.74 58.2085 155.987 H 0 **** 0.41
37255 H 127.591 57.151 144.708 H 0 **** 0.053
37256 H 127.058 58.3293 143.513 H 0 **** 0.053
37257 H 126.229 56.7638 143.613 H 0 **** 0.053
37258 H 126.652 60.5138 143.886 H 0 **** 0.053
37259 H 125.048 61.2592 143.939 H 0 **** 0.053
37260 H 125.305 59.8153 142.948 H 0 **** 0.053
37261 C 122.576 40.3633 189.461 C.2 0 **** 0
37262 C 123.595 40.5041 190.389 C.2 0 **** 0
37263 C 124.597 39.5494 190.469 C.2 0 **** 0
37264 C 124.572 38.4785 189.61 C.2 0 **** 0
37265 C 123.584 38.3603 188.64 C.2 0 **** 0
37266 C 122.589 39.3128 188.561 C.2 0 **** 0
37267 C 125.64 37.4063 189.688 C.3 0 **** -0.106
37268 C 126.638 37.4501 190.837 C.2 0 **** 0
37269 C 126.668 38.5125 191.697 C.2 0 **** 0
37270 C 125.712 39.6871 191.502 C.3 0 **** -0.106
37271 C 127.577 38.5133 192.759 C.2 0 **** 0
37272 C 128.395 37.4273 193.002 C.2 0 **** 0
37273 C 128.436 36.395 192.072 C.2 0 **** 0
37274 C 127.545 36.3875 190.992 C.2 0 **** 0
37275 C 127.546 35.3298 190.095 C.2 0 **** -0.1268
37276 C 128.288 34.1775 190.253 C.2 0 **** 0
37277 C 129.082 34.1566 191.453 C.2 0 **** 0
37278 C 129.314 35.3214 192.189 C.2 0 **** 0.042
37279 C 129.897 32.8958 191.805 C.3 0 **** 0
37280 C 129.868 31.7159 190.83 C.3 0 **** 0
37281 C 129.172 31.9264 189.471 C.2 0 **** 0
37282 C 128.388 33.1018 189.228 C.2 0 **** 0
37283 C 129.99 30.3305 191.5 C.3 0 **** -0.106
37284 C 129.068 30.1998 192.716 C.3 0 **** -0.053
37285 C 129.41 31.2512 193.814 C.3 0 **** -0.053
37286 C 130.175 32.4868 193.271 C.3 0 **** -0.106
37287 C 127.861 33.2344 187.927 C.2 0 **** 0.042
37288 C 128.076 32.2625 186.973 C.2 0 **** 0.052
37289 C 128.863 31.1522 187.239 C.2 0 **** 0.052
37290 C 129.46 31.0218 188.465 C.2 0 **** 0.042
37291 C 129.125 30.082 186.212 C.2 0 **** 0.367
37292 C 128.485 30.2719 184.877 C.2 0 **** 0
37293 C 127.736 31.3482 184.608 C.2 0 **** 0
37294 C 127.465 32.4131 185.603 C.2 0 **** 0.367
37295 C 127.082 31.5276 183.257 C.3 0 **** -0.106
37296 C 126.65 30.1409 182.718 C.3 0 **** -0.106
37297 C 127.82 29.1575 182.735 C.2 0 **** 0
37298 C 128.728 29.212 183.817 C.2 0 **** 0.2405
37299 N 129.773 28.3629 183.918 N.2 0 **** -0.481
37300 C 129.879 27.3936 183.014 C.2 0 **** 0.2405
37301 C 129.021 27.3043 181.893 C.2 0 **** 0
37302 C 127.997 28.2076 181.76 C.2 0 **** 0
37303 C 127.029 28.1444 180.585 C.3 0 **** -0.106
37304 C 127.547 27.2731 179.434 C.3 0 **** -0.106
37305 C 128.111 25.9611 179.969 C.3 0 **** -0.106
37306 C 129.333 26.2487 180.862 C.3 0 **** -0.053
37307 C 129.837 24.9591 181.562 C.3 0 **** -0.106
37308 C 130.967 25.2965 182.498 C.2 0 **** 0
37309 C 130.954 26.4917 183.219 C.2 0 **** 0
37310 C 131.996 26.7625 184.124 C.2 0 **** -0.1268
37311 C 133.001 25.8324 184.307 C.2 0 **** -0.1268
37312 C 132.999 24.6272 183.627 C.2 0 **** 0
37313 C 131.964 24.3551 182.732 C.2 0 **** 0
37314 C 121.54 39.2277 187.482 C.3 0 **** -0.106
37315 C 120.382 38.2999 187.906 C.3 0 **** -0.159
37316 C 121.454 41.3685 189.439 C.3 0 **** -0.159
37317 C 123.636 37.1619 187.72 C.3 0 **** -0.159
37318 C 123.615 41.6904 191.322 C.3 0 **** -0.159
37319 C 127.595 39.7397 193.672 C.3 0 **** -0.159
37320 C 129.189 37.4381 194.286 C.3 0 **** -0.159
37321 O 130.354 35.3481 193.075 O.3 0 **** -0.452
37322 C 130.286 30.7004 194.939 C.3 0 **** -0.159
37323 C 129.14 28.7482 193.206 C.3 0 **** -0.159
37324 O 130.339 30.0153 188.76 O.3 0 **** -0.452
37325 O 127.144 34.3347 187.588 O.3 0 **** -0.452
37326 O 126.796 33.3559 185.326 O.2 0 **** -0.419
37327 O 129.779 29.1164 186.481 O.2 0 **** -0.419
37328 C 131.932 23.015 182.017 C.3 0 **** -0.159
37329 C 134.118 23.6435 183.905 C.3 0 **** -0.159
37330 H 125.116 36.4243 189.742 H 0 **** 0.053
37331 H 126.21 37.4094 188.727 H 0 **** 0.053
37332 H 126.314 40.5897 191.238 H 0 **** 0.053
37333 H 125.238 39.9029 192.485 H 0 **** 0.053
37334 H 126.877 35.4449 189.272 H 0 **** 0.1268
37335 H 129.757 29.5264 190.799 H 0 **** 0.053
37336 H 131.034 30.229 191.802 H 0 **** 0.053
37337 H 128.033 30.3873 192.376 H 0 **** 0.053
37338 H 128.461 31.5934 194.247 H 0 **** 0.053
37339 H 131.247 32.2741 193.279 H 0 **** 0.053
37340 H 130 33.3232 193.959 H 0 **** 0.053
37341 H 126.2 32.1919 183.295 H 0 **** 0.053
37342 H 127.808 32.0025 182.574 H 0 **** 0.053
37343 H 126.224 30.2988 181.712 H 0 **** 0.053
37344 H 125.813 29.7616 183.343 H 0 **** 0.053
37345 H 126.059 27.7379 180.932 H 0 **** 0.053
37346 H 126.821 29.1499 180.177 H 0 **** 0.053
37347 H 128.345 27.8102 178.887 H 0 **** 0.053
37348 H 126.741 27.0831 178.7 H 0 **** 0.053
37349 H 128.399 25.282 179.144 H 0 **** 0.053
37350 H 127.337 25.436 180.559 H 0 **** 0.053
37351 H 130.151 26.6229 180.199 H 0 **** 0.053
37352 H 128.995 24.5001 182.127 H 0 **** 0.053
37353 H 130.124 24.2248 180.777 H 0 **** 0.053
37354 H 132.016 27.6999 184.694 H 0 **** 0.1268
37355 H 133.81 26.0487 185.022 H 0 **** 0.1268
37356 H 121.957 38.8714 186.52 H 0 **** 0.053
37357 H 121.125 40.2183 187.225 H 0 **** 0.053
37358 H 119.907 38.6564 188.835 H 0 **** 0.053
37359 H 120.734 37.2698 188.079 H 0 **** 0.053
37360 H 119.591 38.2515 187.13 H 0 **** 0.053
37361 H 121.248 41.8062 190.436 H 0 **** 0.053
37362 H 120.487 40.9265 189.131 H 0 **** 0.053
37363 H 121.664 42.2135 188.747 H 0 **** 0.053
37364 H 123.542 36.2081 188.287 H 0 **** 0.053
37365 H 124.593 37.1128 187.158 H 0 **** 0.053
37366 H 122.841 37.1233 186.96 H 0 **** 0.053
37367 H 124.628 41.948 191.689 H 0 **** 0.053
37368 H 122.984 41.5158 192.221 H 0 **** 0.053
37369 H 123.25 42.6156 190.837 H 0 **** 0.053
37370 H 128.599 39.9473 194.083 H 0 **** 0.053
37371 H 126.894 39.6291 194.531 H 0 **** 0.053
37372 H 127.316 40.6832 193.15 H 0 **** 0.053
37373 H 129.188 36.4446 194.787 H 0 **** 0.053
37374 H 128.785 38.1177 195.085 H 0 **** 0.053
37375 H 130.261 37.7352 194.142 H 0 **** 0.053
37376 H 130.989 34.6658 192.842 H 0 **** 0.41
37377 H 129.773 29.9053 195.492 H 0 **** 0.053
37378 H 130.534 31.5015 195.659 H 0 **** 0.053
37379 H 131.242 30.299 194.549 H 0 **** 0.053
37380 H 128.815 28.0516 192.41 H 0 **** 0.053
37381 H 128.486 28.585 194.076 H 0 **** 0.053
37382 H 130.175 28.4627 193.482 H 0 **** 0.053
37383 H 130.336 29.3848 188.025 H 0 **** 0.41
37384 H 126.812 34.2483 186.681 H 0 **** 0.41
37385 H 130.942 22.5301 182.109 H 0 **** 0.053
37386 H 132.658 22.281 182.416 H 0 **** 0.053
37387 H 132.156 23.1213 180.935 H 0 **** 0.053
37388 H 133.739 22.7035 184.346 H 0 **** 0.053
37389 H 134.858 24.0464 184.617 H 0 **** 0.053
37390 H 134.673 23.383 182.987 H 0 **** 0.053
37391 C 137.242 90.4222 100.693 C.2 0 **** 0
37392 C 136.995 89.0719 100.501 C.2 0 **** 0
37393 C 138.051 88.1935 100.319 C.2 0 **** 0
37394 C 139.336 88.6749 100.347 C.2 0 **** 0
37395 C 139.593 90.0181 100.594 C.2 0 **** 0
37396 C 138.541 90.8909 100.777 C.2 0 **** 0
37397 C 140.511 87.7426 100.129 C.3 0 **** -0.106
37398 C 140.235 86.3039 99.7138 C.2 0 **** 0
37399 C 138.958 85.8173 99.6833 C.2 0 **** 0
37400 C 137.786 86.7082 100.089 C.3 0 **** -0.106
37401 C 138.732 84.4996 99.2729 C.2 0 **** 0
37402 C 139.767 83.702 98.8264 C.2 0 **** 0
37403 C 141.073 84.1607 98.954 C.2 0 **** 0
37404 C 141.317 85.4721 99.3796 C.2 0 **** 0
37405 C 142.617 85.9494 99.4525 C.2 0 **** -0.1268
37406 C 143.725 85.2623 99.0009 C.2 0 **** 0
37407 C 143.419 83.9756 98.4316 C.2 0 **** 0
37408 C 142.174 83.3728 98.6309 C.2 0 **** 0.042
37409 C 144.548 83.132 97.8069 C.3 0 **** 0
37410 C 145.977 83.6781 97.8571 C.3 0 **** 0
37411 C 146.228 84.9535 98.6862 C.2 0 **** 0
37412 C 145.129 85.719 99.1969 C.2 0 **** 0
37413 C 146.856 83.2804 96.6521 C.3 0 **** -0.106
37414 C 146.124 83.4764 95.3204 C.3 0 **** -0.053
37415 C 144.837 82.6006 95.2344 C.3 0 **** -0.053
37416 C 144.288 82.1724 96.6208 C.3 0 **** -0.106
37417 C 145.468 86.8204 100.008 C.2 0 **** 0.042
37418 C 146.786 87.1389 100.256 C.2 0 **** 0.052
37419 C 147.822 86.357 99.7666 C.2 0 **** 0.052
37420 C 147.536 85.2325 99.0383 C.2 0 **** 0.042
37421 C 149.27 86.6745 100.032 C.2 0 **** 0.367
37422 C 149.544 87.8896 100.855 C.2 0 **** 0
37423 C 148.55 88.6403 101.344 C.2 0 **** 0
37424 C 147.118 88.3476 101.094 C.2 0 **** 0.367
37425 C 148.835 89.8755 102.167 C.3 0 **** -0.106
37426 C 150.114 90.5601 101.622 C.3 0 **** -0.106
37427 C 151.273 89.5668 101.538 C.2 0 **** 0
37428 C 150.993 88.2391 101.142 C.2 0 **** 0.2405
37429 N 151.964 87.3098 101.018 N.2 0 **** -0.481
37430 C 153.224 87.6967 101.187 C.2 0 **** 0.2405
37431 C 153.567 89.0014 101.613 C.2 0 **** 0
37432 C 152.572 89.9285 101.797 C.2 0 **** 0
37433 C 152.885 91.3549 102.232 C.3 0 **** -0.106
37434 C 154.301 91.5069 102.8 C.3 0 **** -0.106
37435 C 155.312 90.7902 101.912 C.3 0 **** -0.106
37436 C 155.019 89.2777 101.91 C.3 0 **** -0.053
37437 C 155.918 88.5297 100.89 C.3 0 **** -0.106
37438 C 155.536 87.0742 100.845 C.2 0 **** 0
37439 C 154.199 86.6905 100.971 C.2 0 **** 0
37440 C 153.862 85.3284 100.879 C.2 0 **** -0.1268
37441 C 154.85 84.3942 100.636 C.2 0 **** -0.1268
37442 C 156.171 84.771 100.467 C.2 0 **** 0
37443 C 156.507 86.1216 100.555 C.2 0 **** 0
37444 C 138.803 92.3402 101.097 C.3 0 **** -0.106
37445 C 139.035 93.1598 99.8103 C.3 0 **** -0.159
37446 C 136.081 91.3752 100.813 C.3 0 **** -0.159
37447 C 141.036 90.4672 100.626 C.3 0 **** -0.159
37448 C 135.577 88.5541 100.483 C.3 0 **** -0.159
37449 C 137.29 83.9925 99.2896 C.3 0 **** -0.159
37450 C 139.396 82.3723 98.2136 C.3 0 **** -0.159
37451 O 142.048 82.0285 98.4203 O.3 0 **** -0.452
37452 C 145.03 81.2967 94.4572 C.3 0 **** -0.159
37453 C 147.129 83.2132 94.1921 C.3 0 **** -0.159
37454 O 148.499 84.3535 98.6204 O.3 0 **** -0.452
37455 O 144.496 87.5802 100.572 O.3 0 **** -0.452
37456 O 146.263 89.0387 101.546 O.2 0 **** -0.419
37457 O 150.143 86.0033 99.5635 O.2 0 **** -0.419
37458 C 157.949 86.5462 100.327 C.3 0 **** -0.159
37459 C 157.194 83.6922 100.173 C.3 0 **** -0.159
37460 H 141.148 88.1988 99.3366 H 0 **** 0.053
37461 H 141.125 87.7279 101.063 H 0 **** 0.053
37462 H 137.335 86.2914 101.022 H 0 **** 0.053
37463 H 137.007 86.6221 99.2991 H 0 **** 0.053
37464 H 142.706 86.9355 99.8496 H 0 **** 0.1268
37465 H 147.783 83.8557 96.6268 H 0 **** 0.053
37466 H 147.11 82.2278 96.7952 H 0 **** 0.053
37467 H 145.82 84.5365 95.2566 H 0 **** 0.053
37468 H 144.069 83.1986 94.7273 H 0 **** 0.053
37469 H 144.78 81.2455 96.9282 H 0 **** 0.053
37470 H 143.219 81.9552 96.5105 H 0 **** 0.053
37471 H 148.002 90.6009 102.151 H 0 **** 0.053
37472 H 148.973 89.5733 103.22 H 0 **** 0.053
37473 H 150.325 91.426 102.273 H 0 **** 0.053
37474 H 149.891 90.984 100.62 H 0 **** 0.053
37475 H 152.774 92.034 101.364 H 0 **** 0.053
37476 H 152.175 91.7084 103.001 H 0 **** 0.053
37477 H 154.344 91.0718 103.817 H 0 **** 0.053
37478 H 154.562 92.5762 102.908 H 0 **** 0.053
37479 H 156.348 90.9714 102.256 H 0 **** 0.053
37480 H 155.246 91.1818 100.881 H 0 **** 0.053
37481 H 155.259 88.8883 102.929 H 0 **** 0.053
37482 H 155.788 88.9909 99.8845 H 0 **** 0.053
37483 H 156.981 88.6939 101.174 H 0 **** 0.053
37484 H 152.821 84.9981 100.99 H 0 **** 0.1268
37485 H 154.578 83.329 100.56 H 0 **** 0.1268
37486 H 139.672 92.4687 101.772 H 0 **** 0.053
37487 H 137.974 92.7987 101.665 H 0 **** 0.053
37488 H 138.165 93.0961 99.137 H 0 **** 0.053
37489 H 139.918 92.7985 99.257 H 0 **** 0.053
37490 H 139.203 94.2326 100.033 H 0 **** 0.053
37491 H 135.191 91.0434 100.244 H 0 **** 0.053
37492 H 136.307 92.3794 100.406 H 0 **** 0.053
37493 H 135.762 91.5131 101.87 H 0 **** 0.053
37494 H 141.54 90.2942 99.6488 H 0 **** 0.053
37495 H 141.623 89.9197 101.395 H 0 **** 0.053
37496 H 141.187 91.5354 100.842 H 0 **** 0.053
37497 H 135.492 87.4867 100.764 H 0 **** 0.053
37498 H 135.116 88.6576 99.4751 H 0 **** 0.053
37499 H 134.924 89.085 101.201 H 0 **** 0.053
37500 H 137.223 82.912 99.5073 H 0 **** 0.053
37501 H 136.774 84.175 98.3191 H 0 **** 0.053
37502 H 136.664 84.4668 100.08 H 0 **** 0.053
37503 H 139.99 82.1534 97.2992 H 0 **** 0.053
37504 H 138.337 82.3045 97.8418 H 0 **** 0.053
37505 H 139.534 81.5079 98.9141 H 0 **** 0.053
37506 H 142.916 81.6168 98.4574 H 0 **** 0.41
37507 H 145.278 81.484 93.404 H 0 **** 0.053
37508 H 144.1 80.6962 94.4735 H 0 **** 0.053
37509 H 145.83 80.6753 94.9047 H 0 **** 0.053
37510 H 147.984 83.9126 94.2593 H 0 **** 0.053
37511 H 146.666 83.3508 93.2033 H 0 **** 0.053
37512 H 147.545 82.1877 94.2486 H 0 **** 0.053
37513 H 149.366 84.7416 98.8104 H 0 **** 0.41
37514 H 144.892 88.318 101.06 H 0 **** 0.41
37515 H 158.017 87.372 99.5944 H 0 **** 0.053
37516 H 158.59 85.7398 99.9231 H 0 **** 0.053
37517 H 158.43 86.8873 101.267 H 0 **** 0.053
37518 H 157.66 83.8269 99.1794 H 0 **** 0.053
37519 H 156.746 82.6829 100.173 H 0 **** 0.053
37520 H 158.003 83.6764 100.924 H 0 **** 0.053
37521 C 104.989 45.1166 155.205 C.2 0 **** 0
37522 C 104.437 45.3289 153.951 C.2 0 **** 0
37523 C 103.863 46.5521 153.646 C.2 0 **** 0
37524 C 103.861 47.5475 154.591 C.2 0 **** 0
37525 C 104.462 47.36 155.83 C.2 0 **** 0
37526 C 105.036 46.1424 156.132 C.2 0 **** 0
37527 C 103.22 48.8882 154.295 C.3 0 **** -0.106
37528 C 102.434 49.0526 153.001 C.2 0 **** 0
37529 C 102.429 48.0657 152.055 C.2 0 **** 0
37530 C 103.235 46.7871 152.274 C.3 0 **** -0.106
37531 C 101.676 48.2328 150.889 C.2 0 **** 0
37532 C 100.877 49.344 150.706 C.2 0 **** 0
37533 C 100.962 50.3902 151.618 C.2 0 **** 0
37534 C 101.725 50.2464 152.782 C.2 0 **** 0
37535 C 101.764 51.2673 153.72 C.2 0 **** -0.1268
37536 C 100.985 52.4041 153.665 C.2 0 **** 0
37537 C 100.102 52.4494 152.529 C.2 0 **** 0
37538 C 100.273 51.5871 151.443 C.2 0 **** 0.042
37539 C 99.1087 53.6197 152.383 C.3 0 **** 0
37540 C 99.1305 54.7282 153.439 C.3 0 **** 0
37541 C 100.262 54.6988 154.485 C.2 0 **** 0
37542 C 101.12 53.5559 154.6 C.2 0 **** 0
37543 C 97.7562 55.3746 153.714 C.3 0 **** -0.106
37544 C 96.6535 54.3251 153.885 C.3 0 **** -0.053
37545 C 96.4807 53.4544 152.603 C.3 0 **** -0.053
37546 C 97.7355 53.4434 151.691 C.3 0 **** -0.106
37547 C 102.172 53.6641 155.532 C.2 0 **** 0.042
37548 C 102.326 54.8005 156.297 C.2 0 **** 0.052
37549 C 101.492 55.8965 156.138 C.2 0 **** 0.052
37550 C 100.505 55.8651 155.188 C.2 0 **** 0.042
37551 C 101.645 57.1546 156.951 C.2 0 **** 0.367
37552 C 102.75 57.1658 157.955 C.2 0 **** 0
37553 C 103.569 56.1178 158.104 C.2 0 **** 0
37554 C 103.436 54.8694 157.315 C.2 0 **** 0.367
37555 C 104.679 56.1327 159.131 C.3 0 **** -0.106
37556 C 104.199 56.9127 160.38 C.3 0 **** -0.106
37557 C 103.668 58.2933 159.994 C.2 0 **** 0
37558 C 102.934 58.4187 158.793 C.2 0 **** 0.2405
37559 N 102.409 59.5974 158.394 N.2 0 **** -0.481
37560 C 102.518 60.6379 159.214 C.2 0 **** 0.2405
37561 C 103.265 60.5837 160.414 C.2 0 **** 0
37562 C 103.848 59.3989 160.787 C.2 0 **** 0
37563 C 104.645 59.2772 162.08 C.3 0 **** -0.106
37564 C 105.039 60.6382 162.667 C.3 0 **** -0.106
37565 C 103.851 61.5943 162.644 C.3 0 **** -0.106
37566 C 103.435 61.8685 161.186 C.3 0 **** -0.053
37567 C 102.129 62.7024 161.119 C.3 0 **** -0.106
37568 C 101.701 62.8651 159.684 C.2 0 **** 0
37569 C 101.883 61.8254 158.77 C.2 0 **** 0
37570 C 101.433 61.9839 157.447 C.2 0 **** -0.1268
37571 C 100.793 63.1513 157.079 C.2 0 **** -0.1268
37572 C 100.571 64.1692 157.989 C.2 0 **** 0
37573 C 101.014 64.0127 159.303 C.2 0 **** 0
37574 C 105.737 45.9388 157.451 C.3 0 **** -0.106
37575 C 104.736 45.5479 158.558 C.3 0 **** -0.159
37576 C 105.541 43.7572 155.548 C.3 0 **** -0.159
37577 C 104.435 48.5102 156.811 C.3 0 **** -0.159
37578 C 104.453 44.2289 152.918 C.3 0 **** -0.159
37579 C 101.732 47.1155 149.847 C.3 0 **** -0.159
37580 C 99.9491 49.3352 149.514 C.3 0 **** -0.159
37581 O 99.6852 51.9005 150.25 O.3 0 **** -0.452
37582 C 95.3309 53.9065 151.701 C.3 0 **** -0.159
37583 C 95.3755 55.0556 154.314 C.3 0 **** -0.159
37584 O 99.7185 56.9471 154.898 O.3 0 **** -0.452
37585 O 103.061 52.6509 155.681 O.3 0 **** -0.452
37586 O 104.183 53.9591 157.476 O.2 0 **** -0.419
37587 O 100.886 58.0705 156.818 O.2 0 **** -0.419
37588 C 100.734 65.1079 160.318 C.3 0 **** -0.159
37589 C 99.8341 65.407 157.518 C.3 0 **** -0.159
37590 H 102.523 49.1114 155.136 H 0 **** 0.053
37591 H 104.016 49.672 154.325 H 0 **** 0.053
37592 H 104.052 46.7525 151.513 H 0 **** 0.053
37593 H 102.566 45.9254 152.056 H 0 **** 0.053
37594 H 102.423 51.0914 154.541 H 0 **** 0.1268
37595 H 97.7813 56.0009 154.607 H 0 **** 0.053
37596 H 97.5431 56.0137 152.854 H 0 **** 0.053
37597 H 96.9511 53.6567 154.713 H 0 **** 0.053
37598 H 96.2829 52.4254 152.931 H 0 **** 0.053
37599 H 97.6838 54.2923 151.004 H 0 **** 0.053
37600 H 97.708 52.529 151.086 H 0 **** 0.053
37601 H 104.991 55.1174 159.436 H 0 **** 0.053
37602 H 105.565 56.6173 158.685 H 0 **** 0.053
37603 H 105.046 56.9504 161.088 H 0 **** 0.053
37604 H 103.409 56.3197 160.888 H 0 **** 0.053
37605 H 104.044 58.7269 162.83 H 0 **** 0.053
37606 H 105.572 58.6946 161.932 H 0 **** 0.053
37607 H 105.864 61.0758 162.074 H 0 **** 0.053
37608 H 105.427 60.5179 163.696 H 0 **** 0.053
37609 H 104.094 62.5475 163.151 H 0 **** 0.053
37610 H 103.003 61.1474 163.194 H 0 **** 0.053
37611 H 104.251 62.4679 160.712 H 0 **** 0.053
37612 H 101.334 62.1789 161.698 H 0 **** 0.053
37613 H 102.305 63.671 161.635 H 0 **** 0.053
37614 H 101.577 61.1887 156.705 H 0 **** 0.1268
37615 H 100.439 63.2668 156.041 H 0 **** 0.1268
37616 H 106.297 46.8393 157.77 H 0 **** 0.053
37617 H 106.521 45.1628 157.391 H 0 **** 0.053
37618 H 104.196 44.6227 158.296 H 0 **** 0.053
37619 H 103.988 46.3407 158.722 H 0 **** 0.053
37620 H 105.245 45.3701 159.526 H 0 **** 0.053
37621 H 105.022 42.9351 155.017 H 0 **** 0.053
37622 H 105.427 43.5051 156.619 H 0 **** 0.053
37623 H 106.623 43.6725 155.304 H 0 **** 0.053
37624 H 103.393 48.7924 157.081 H 0 **** 0.053
37625 H 104.92 49.4197 156.395 H 0 **** 0.053
37626 H 104.938 48.317 157.77 H 0 **** 0.053
37627 H 104.41 44.6 151.876 H 0 **** 0.053
37628 H 103.593 43.5344 153.046 H 0 **** 0.053
37629 H 105.377 43.6219 152.961 H 0 **** 0.053
37630 H 101.623 47.4928 148.814 H 0 **** 0.053
37631 H 100.938 46.352 150.013 H 0 **** 0.053
37632 H 102.704 46.571 149.834 H 0 **** 0.053
37633 H 98.9402 49.7309 149.766 H 0 **** 0.053
37634 H 99.7184 48.3146 149.104 H 0 **** 0.053
37635 H 100.334 49.936 148.649 H 0 **** 0.053
37636 H 99.4928 52.8415 150.225 H 0 **** 0.41
37637 H 94.3588 53.8119 152.203 H 0 **** 0.053
37638 H 95.2904 53.2854 150.786 H 0 **** 0.053
37639 H 95.4619 54.9581 151.378 H 0 **** 0.053
37640 H 95.535 55.594 155.267 H 0 **** 0.053
37641 H 94.5437 54.3519 154.467 H 0 **** 0.053
37642 H 95.067 55.8108 153.564 H 0 **** 0.053
37643 H 99.9011 57.6382 155.552 H 0 **** 0.41
37644 H 103.689 52.8616 156.388 H 0 **** 0.41
37645 H 100.28 64.6991 161.24 H 0 **** 0.053
37646 H 100.026 65.8778 159.957 H 0 **** 0.053
37647 H 101.66 65.6462 160.607 H 0 **** 0.053
37648 H 98.874 65.5415 158.049 H 0 **** 0.053
37649 H 99.5914 65.3622 156.442 H 0 **** 0.053
37650 H 100.432 66.3233 157.668 H 0 **** 0.053
37651 C 109.291 61.3666 168.461 C.2 0 **** 0
37652 C 109.476 59.9929 168.481 C.2 0 **** 0
37653 C 110.059 59.3569 167.396 C.2 0 **** 0
37654 C 110.461 60.104 166.317 C.2 0 **** 0
37655 C 110.33 61.4874 166.314 C.2 0 **** 0
37656 C 109.751 62.1192 167.395 C.2 0 **** 0
37657 C 111.082 59.4346 165.107 C.3 0 **** -0.106
37658 C 111.096 57.9136 165.04 C.2 0 **** 0
37659 C 110.695 57.1627 166.11 C.2 0 **** 0
37660 C 110.248 57.8423 167.402 C.3 0 **** -0.106
37661 C 110.693 55.7677 166.01 C.2 0 **** 0
37662 C 111.016 55.1345 164.826 C.2 0 **** 0
37663 C 111.52 55.8911 163.775 C.2 0 **** 0
37664 C 111.546 57.288 163.864 C.2 0 **** 0
37665 C 111.995 58.0464 162.794 C.2 0 **** -0.1268
37666 C 112.309 57.5313 161.553 C.2 0 **** 0
37667 C 112.126 56.1069 161.452 C.2 0 **** 0
37668 C 111.97 55.3137 162.591 C.2 0 **** 0.042
37669 C 112.355 55.405 160.098 C.3 0 **** 0
37670 C 112.816 56.2508 158.909 C.3 0 **** 0
37671 C 113.199 57.7188 159.18 C.2 0 **** 0
37672 C 112.914 58.3239 160.449 C.2 0 **** 0
37673 C 112.302 55.7609 157.539 C.3 0 **** -0.106
37674 C 110.805 55.4356 157.572 C.3 0 **** -0.053
37675 C 110.483 54.3025 158.593 C.3 0 **** -0.053
37676 C 111.565 54.1374 159.693 C.3 0 **** -0.106
37677 C 113.376 59.6438 160.621 C.2 0 **** 0.042
37678 C 114.033 60.3017 159.603 C.2 0 **** 0.052
37679 C 114.319 59.6706 158.4 C.2 0 **** 0.052
37680 C 113.954 58.3637 158.218 C.2 0 **** 0.042
37681 C 115.045 60.3608 157.275 C.2 0 **** 0.367
37682 C 115.432 61.7819 157.512 C.2 0 **** 0
37683 C 115.159 62.3929 158.669 C.2 0 **** 0
37684 C 114.464 61.7326 159.794 C.2 0 **** 0.367
37685 C 115.511 63.8364 158.88 C.3 0 **** -0.106
37686 C 115.402 64.6236 157.567 C.3 0 **** -0.106
37687 C 116.175 63.9223 156.444 C.2 0 **** 0
37688 C 116.175 62.5094 156.405 C.2 0 **** 0.2405
37689 N 116.796 61.8212 155.421 N.2 0 **** -0.481
37690 C 117.344 62.5118 154.426 C.2 0 **** 0.2405
37691 C 117.409 63.9247 154.428 C.2 0 **** 0
37692 C 116.83 64.6205 155.459 C.2 0 **** 0
37693 C 116.854 66.1438 155.501 C.3 0 **** -0.106
37694 C 117.875 66.7548 154.533 C.3 0 **** -0.106
37695 C 117.794 66.0731 153.172 C.3 0 **** -0.106
37696 C 118.176 64.5867 153.311 C.3 0 **** -0.053
37697 C 117.942 63.8195 151.982 C.3 0 **** -0.106
37698 C 118.233 62.3556 152.183 C.2 0 **** 0
37699 C 117.908 61.7292 153.387 C.2 0 **** 0
37700 C 118.142 60.3498 153.532 C.2 0 **** -0.1268
37701 C 118.662 59.6297 152.474 C.2 0 **** -0.1268
37702 C 118.95 60.2357 151.264 C.2 0 **** 0
37703 C 118.714 61.6025 151.116 C.2 0 **** 0
37704 C 109.647 63.6224 167.43 C.3 0 **** -0.106
37705 C 108.386 64.1104 166.687 C.3 0 **** -0.159
37706 C 108.586 62.0329 169.614 C.3 0 **** -0.159
37707 C 110.814 62.2405 165.096 C.3 0 **** -0.159
37708 C 109.036 59.1843 169.677 C.3 0 **** -0.159
37709 C 110.27 54.9725 167.246 C.3 0 **** -0.159
37710 C 110.786 53.6434 164.759 C.3 0 **** -0.159
37711 O 112.183 53.9674 162.493 O.3 0 **** -0.452
37712 C 110.343 52.9188 157.955 C.3 0 **** -0.159
37713 C 110.363 55.1203 156.138 C.3 0 **** -0.159
37714 O 114.294 57.6472 157.103 O.3 0 **** -0.452
37715 O 113.186 60.2889 161.799 O.3 0 **** -0.452
37716 O 114.258 62.3061 160.816 O.2 0 **** -0.419
37717 O 115.245 59.8018 156.235 O.2 0 **** -0.419
37718 C 118.982 62.2649 149.775 C.3 0 **** -0.159
37719 C 119.489 59.3752 150.139 C.3 0 **** -0.159
37720 H 110.53 59.8002 164.211 H 0 **** 0.053
37721 H 112.133 59.8007 165.004 H 0 **** 0.053
37722 H 110.985 57.5918 168.203 H 0 **** 0.053
37723 H 109.283 57.3818 167.709 H 0 **** 0.053
37724 H 112.04 59.0956 162.981 H 0 **** 0.1268
37725 H 112.479 56.5023 156.757 H 0 **** 0.053
37726 H 112.881 54.8663 157.299 H 0 **** 0.053
37727 H 110.27 56.3467 157.895 H 0 **** 0.053
37728 H 109.533 54.5604 159.079 H 0 **** 0.053
37729 H 112.341 53.4571 159.33 H 0 **** 0.053
37730 H 111.095 53.6647 160.564 H 0 **** 0.053
37731 H 114.941 64.3251 159.681 H 0 **** 0.053
37732 H 116.554 63.8574 159.184 H 0 **** 0.053
37733 H 115.777 65.6433 157.775 H 0 **** 0.053
37734 H 114.332 64.732 157.304 H 0 **** 0.053
37735 H 115.848 66.5307 155.247 H 0 **** 0.053
37736 H 117.085 66.5156 156.516 H 0 **** 0.053
37737 H 118.898 66.6303 154.929 H 0 **** 0.053
37738 H 117.714 67.8441 154.439 H 0 **** 0.053
37739 H 118.459 66.565 152.437 H 0 **** 0.053
37740 H 116.765 66.156 152.776 H 0 **** 0.053
37741 H 119.267 64.5392 153.545 H 0 **** 0.053
37742 H 116.885 63.9616 151.662 H 0 **** 0.053
37743 H 118.572 64.2863 151.194 H 0 **** 0.053
37744 H 117.904 59.8383 154.473 H 0 **** 0.1268
37745 H 118.824 58.5466 152.59 H 0 **** 0.1268
37746 H 110.539 64.1128 166.993 H 0 **** 0.053
37747 H 109.625 64.0148 168.463 H 0 **** 0.053
37748 H 107.473 63.6811 167.132 H 0 **** 0.053
37749 H 108.411 63.825 165.623 H 0 **** 0.053
37750 H 108.287 65.2134 166.73 H 0 **** 0.053
37751 H 107.842 61.3741 170.103 H 0 **** 0.053
37752 H 108.002 62.9212 169.306 H 0 **** 0.053
37753 H 109.296 62.3652 170.403 H 0 **** 0.053
37754 H 110.258 61.937 164.18 H 0 **** 0.053
37755 H 111.892 62.0572 164.898 H 0 **** 0.053
37756 H 110.703 63.3336 165.15 H 0 **** 0.053
37757 H 109.593 58.2353 169.798 H 0 **** 0.053
37758 H 107.958 58.9169 169.617 H 0 **** 0.053
37759 H 109.191 59.7233 170.631 H 0 **** 0.053
37760 H 110.786 53.9989 167.32 H 0 **** 0.053
37761 H 109.173 54.7756 167.258 H 0 **** 0.053
37762 H 110.515 55.4828 168.205 H 0 **** 0.053
37763 H 110.337 53.3329 163.789 H 0 **** 0.053
37764 H 110.05 53.2457 165.51 H 0 **** 0.053
37765 H 111.723 53.0442 164.898 H 0 **** 0.053
37766 H 112.731 53.786 161.725 H 0 **** 0.41
37767 H 109.497 52.8767 157.257 H 0 **** 0.053
37768 H 110.167 52.1507 158.732 H 0 **** 0.053
37769 H 111.265 52.6306 157.412 H 0 **** 0.053
37770 H 110.546 55.9859 155.474 H 0 **** 0.053
37771 H 109.288 54.889 156.091 H 0 **** 0.053
37772 H 110.928 54.2649 155.717 H 0 **** 0.053
37773 H 114.697 58.2565 156.465 H 0 **** 0.41
37774 H 113.52 61.1968 161.736 H 0 **** 0.41
37775 H 118.116 62.8656 149.437 H 0 **** 0.053
37776 H 119.178 61.5469 148.956 H 0 **** 0.053
37777 H 119.863 62.9383 149.818 H 0 **** 0.053
37778 H 118.8 59.3505 149.274 H 0 **** 0.053
37779 H 119.635 58.3255 150.449 H 0 **** 0.053
37780 H 120.467 59.7359 149.775 H 0 **** 0.053
37781 C 143.048 0.343801 136.229 C.2 0 **** 0
37782 C 143.877 1.12956 135.444 C.2 0 **** 0
37783 C 143.986 2.48788 135.696 C.2 0 **** 0
37784 C 143.275 3.03598 136.735 C.2 0 **** 0
37785 C 142.486 2.24431 137.561 C.2 0 **** 0
37786 C 142.381 0.891714 137.311 C.2 0 **** 0
37787 C 143.355 4.52226 137.02 C.3 0 **** -0.106
37788 C 144.099 5.4167 136.037 C.2 0 **** 0
37789 C 144.808 4.87844 135 C.2 0 **** 0
37790 C 144.882 3.36321 134.824 C.3 0 **** -0.106
37791 C 145.459 5.725 134.096 C.2 0 **** 0
37792 C 145.337 7.09745 134.189 C.2 0 **** 0
37793 C 144.704 7.644 135.299 C.2 0 **** 0
37794 C 144.063 6.8096 136.223 C.2 0 **** 0
37795 C 143.381 7.35632 137.3 C.2 0 **** -0.1268
37796 C 143.163 8.7067 137.478 C.2 0 **** 0
37797 C 143.709 9.52747 136.429 C.2 0 **** 0
37798 C 144.639 9.01686 135.52 C.2 0 **** 0.042
37799 C 143.467 11.0499 136.45 C.3 0 **** 0
37800 C 142.686 11.6466 137.624 C.3 0 **** 0
37801 C 142.341 10.7145 138.802 C.2 0 **** 0
37802 C 142.546 9.29954 138.697 C.2 0 **** 0
37803 C 141.836 12.8833 137.262 C.3 0 **** -0.106
37804 C 141.03 12.6689 135.976 C.3 0 **** -0.053
37805 C 141.957 12.3993 134.752 C.3 0 **** -0.053
37806 C 143.364 11.8781 135.147 C.3 0 **** -0.106
37807 C 142.275 8.54871 139.859 C.2 0 **** 0.042
37808 C 141.811 9.15865 141.005 C.2 0 **** 0.052
37809 C 141.651 10.5346 141.076 C.2 0 **** 0.052
37810 C 141.978 11.3118 139.996 C.2 0 **** 0.042
37811 C 141.158 11.2292 142.318 C.2 0 **** 0.367
37812 C 140.842 10.3542 143.486 C.2 0 **** 0
37813 C 141.009 9.02725 143.43 C.2 0 **** 0
37814 C 141.491 8.32321 142.218 C.2 0 **** 0.367
37815 C 140.676 8.1478 144.614 C.3 0 **** -0.106
37816 C 139.443 8.73473 145.346 C.3 0 **** -0.106
37817 C 139.658 10.2096 145.687 C.2 0 **** 0
37818 C 140.343 11.0216 144.755 C.2 0 **** 0.2405
37819 N 140.553 12.3375 144.971 N.2 0 **** -0.481
37820 C 140.009 12.8878 146.052 C.2 0 **** 0.2405
37821 C 139.339 12.124 147.036 C.2 0 **** 0
37822 C 139.182 10.7744 146.844 C.2 0 **** 0
37823 C 138.449 9.90699 147.86 C.3 0 **** -0.106
37824 C 138.284 10.5945 149.221 C.3 0 **** -0.106
37825 C 137.816 12.0345 149.038 C.3 0 **** -0.106
37826 C 138.895 12.8385 148.288 C.3 0 **** -0.053
37827 C 138.394 14.2633 147.933 C.3 0 **** -0.106
37828 C 139.436 14.9818 147.117 C.2 0 **** 0
37829 C 140.203 14.2861 146.181 C.2 0 **** 0
37830 C 141.139 14.9875 145.399 C.2 0 **** -0.1268
37831 C 141.264 16.3555 145.546 C.2 0 **** -0.1268
37832 C 140.476 17.0583 146.441 C.2 0 **** 0
37833 C 139.546 16.3652 147.216 C.2 0 **** 0
37834 C 141.569 0.0105383 138.226 C.3 0 **** -0.106
37835 C 140.077 0.0253107 137.832 C.3 0 **** -0.159
37836 C 142.881 -1.11557 135.894 C.3 0 **** -0.159
37837 C 141.749 2.91933 138.695 C.3 0 **** -0.159
37838 C 144.659 0.513326 134.309 C.3 0 **** -0.159
37839 C 146.266 5.07315 132.973 C.3 0 **** -0.159
37840 C 145.901 7.91631 133.053 C.3 0 **** -0.159
37841 O 145.408 9.88891 134.801 O.3 0 **** -0.452
37842 C 142.214 13.6357 133.888 C.3 0 **** -0.159
37843 C 140.105 13.8781 135.797 C.3 0 **** -0.159
37844 O 141.956 12.6798 140.031 O.3 0 **** -0.452
37845 O 142.48 7.20759 139.871 O.3 0 **** -0.452
37846 O 141.627 7.14143 142.209 O.2 0 **** -0.419
37847 O 140.994 12.4138 142.338 O.2 0 **** -0.419
37848 C 138.649 17.1368 148.169 C.3 0 **** -0.159
37849 C 140.649 18.5619 146.524 C.3 0 **** -0.159
37850 H 142.308 4.90044 137.084 H 0 **** 0.053
37851 H 143.806 4.66113 138.033 H 0 **** 0.053
37852 H 145.939 3.04275 134.988 H 0 **** 0.053
37853 H 144.647 3.13565 133.761 H 0 **** 0.053
37854 H 142.981 6.64024 137.982 H 0 **** 0.1268
37855 H 141.144 13.1418 138.066 H 0 **** 0.053
37856 H 142.539 13.7097 137.137 H 0 **** 0.053
37857 H 140.393 11.7784 136.123 H 0 **** 0.053
37858 H 141.467 11.6364 134.133 H 0 **** 0.053
37859 H 144.022 12.7321 135.333 H 0 **** 0.053
37860 H 143.775 11.3282 134.291 H 0 **** 0.053
37861 H 140.461 7.10366 144.322 H 0 **** 0.053
37862 H 141.55 8.11542 145.286 H 0 **** 0.053
37863 H 139.257 8.10262 146.232 H 0 **** 0.053
37864 H 138.551 8.61298 144.696 H 0 **** 0.053
37865 H 137.447 9.65082 147.466 H 0 **** 0.053
37866 H 138.975 8.95019 148.029 H 0 **** 0.053
37867 H 139.251 10.5969 149.758 H 0 **** 0.053
37868 H 137.576 10.0298 149.856 H 0 **** 0.053
37869 H 137.6 12.5135 150.012 H 0 **** 0.053
37870 H 136.875 12.05 148.459 H 0 **** 0.053
37871 H 139.772 12.943 148.973 H 0 **** 0.053
37872 H 137.446 14.1804 147.354 H 0 **** 0.053
37873 H 138.14 14.79 148.878 H 0 **** 0.053
37874 H 141.765 14.463 144.667 H 0 **** 0.1268
37875 H 141.995 16.8991 144.927 H 0 **** 0.1268
37876 H 141.668 0.307586 139.288 H 0 **** 0.053
37877 H 141.926 -1.03476 138.223 H 0 **** 0.053
37878 H 139.937 -0.31694 136.793 H 0 **** 0.053
37879 H 139.648 1.03763 137.914 H 0 **** 0.053
37880 H 139.475 -0.641012 138.482 H 0 **** 0.053
37881 H 142.993 -1.32482 134.812 H 0 **** 0.053
37882 H 141.874 -1.50082 136.143 H 0 **** 0.053
37883 H 143.618 -1.75342 136.43 H 0 **** 0.053
37884 H 141.029 3.68053 138.319 H 0 **** 0.053
37885 H 142.444 3.443 139.386 H 0 **** 0.053
37886 H 141.151 2.24687 139.328 H 0 **** 0.053
37887 H 145.576 1.07569 134.046 H 0 **** 0.053
37888 H 144.049 0.444034 133.381 H 0 **** 0.053
37889 H 145.016 -0.506878 134.547 H 0 **** 0.053
37890 H 147.138 5.67899 132.673 H 0 **** 0.053
37891 H 145.647 4.90254 132.063 H 0 **** 0.053
37892 H 146.701 4.08779 133.255 H 0 **** 0.053
37893 H 145.225 8.74981 132.76 H 0 **** 0.053
37894 H 146.038 7.35677 132.087 H 0 **** 0.053
37895 H 146.898 8.36873 133.291 H 0 **** 0.053
37896 H 145.439 10.736 135.253 H 0 **** 0.41
37897 H 141.289 14.0082 133.427 H 0 **** 0.053
37898 H 142.916 13.3953 133.068 H 0 **** 0.053
37899 H 142.668 14.4538 134.481 H 0 **** 0.053
37900 H 139.419 13.9758 136.66 H 0 **** 0.053
37901 H 139.486 13.7789 134.893 H 0 **** 0.053
37902 H 140.679 14.8239 135.732 H 0 **** 0.053
37903 H 141.55 12.9556 140.867 H 0 **** 0.41
37904 H 142.203 6.837 140.722 H 0 **** 0.41
37905 H 137.585 16.8634 148.035 H 0 **** 0.053
37906 H 138.691 18.2339 148.029 H 0 **** 0.053
37907 H 138.916 16.9467 149.229 H 0 **** 0.053
37908 H 139.73 19.099 146.226 H 0 **** 0.053
37909 H 141.452 18.9256 145.859 H 0 **** 0.053
37910 H 140.914 18.8903 147.544 H 0 **** 0.053
37911 C 137.639 95.9882 115.532 C.2 0 **** 0
37912 C 137.417 94.9308 116.401 C.2 0 **** 0
37913 C 138.301 93.865 116.435 C.2 0 **** 0
37914 C 139.401 93.8793 115.612 C.2 0 **** 0
37915 C 139.659 94.9617 114.78 C.2 0 **** 0
37916 C 138.778 96.0231 114.749 C.2 0 **** 0
37917 C 140.374 92.7178 115.61 C.3 0 **** -0.106
37918 C 140.023 91.4685 116.406 C.2 0 **** 0
37919 C 138.93 91.446 117.227 C.2 0 **** 0
37920 C 138.053 92.6878 117.374 C.3 0 **** -0.106
37921 C 138.617 90.2759 117.925 C.2 0 **** 0
37922 C 139.347 89.1182 117.746 C.2 0 **** 0
37923 C 140.515 89.1696 116.994 C.2 0 **** 0
37924 C 140.853 90.3389 116.302 C.2 0 **** 0
37925 C 141.988 90.3734 115.505 C.2 0 **** -0.1268
37926 C 142.772 89.2751 115.221 C.2 0 **** 0
37927 C 142.309 88.0559 115.83 C.2 0 **** 0
37928 C 141.363 88.074 116.858 C.2 0 **** 0.042
37929 C 143.038 86.7307 115.531 C.3 0 **** 0
37930 C 144.27 86.7666 114.623 C.3 0 **** 0
37931 C 144.813 88.1484 114.207 C.2 0 **** 0
37932 C 144.059 89.3384 114.474 C.2 0 **** 0
37933 C 144.468 85.4994 113.765 C.3 0 **** -0.106
37934 C 143.166 85.0562 113.089 C.3 0 **** -0.053
37935 C 142.062 84.7113 114.134 C.3 0 **** -0.053
37936 C 142.292 85.3746 115.517 C.3 0 **** -0.106
37937 C 144.681 90.554 114.125 C.2 0 **** 0.042
37938 C 145.928 90.569 113.537 C.2 0 **** 0.052
37939 C 146.638 89.3973 113.321 C.2 0 **** 0.052
37940 C 146.105 88.1989 113.715 C.2 0 **** 0.042
37941 C 148.006 89.3851 112.691 C.2 0 **** 0.367
37942 C 148.569 90.7113 112.302 C.2 0 **** 0
37943 C 147.898 91.8476 112.521 C.2 0 **** 0
37944 C 146.55 91.8832 113.138 C.2 0 **** 0.367
37945 C 148.47 93.1857 112.113 C.3 0 **** -0.106
37946 C 149.27 93.0123 110.798 C.3 0 **** -0.106
37947 C 150.3 91.8893 110.927 C.2 0 **** 0
37948 C 149.947 90.736 111.664 C.2 0 **** 0.2405
37949 N 150.79 89.6904 111.802 N.2 0 **** -0.481
37950 C 151.944 89.7263 111.143 C.2 0 **** 0.2405
37951 C 152.366 90.8626 110.414 C.2 0 **** 0
37952 C 151.532 91.9488 110.325 C.2 0 **** 0
37953 C 151.925 93.1904 109.534 C.3 0 **** -0.106
37954 C 153.425 93.2447 109.219 C.3 0 **** -0.106
37955 C 153.915 91.8904 108.717 C.3 0 **** -0.106
37956 C 153.756 90.8373 109.83 C.3 0 **** -0.053
37957 C 154.085 89.4124 109.311 C.3 0 **** -0.106
37958 C 153.824 88.4017 110.396 C.2 0 **** 0
37959 C 152.75 88.567 111.272 C.2 0 **** 0
37960 C 152.498 87.5854 112.247 C.2 0 **** -0.1268
37961 C 153.298 86.4605 112.307 C.2 0 **** -0.1268
37962 C 154.339 86.269 111.415 C.2 0 **** 0
37963 C 154.588 87.2395 110.445 C.2 0 **** 0
37964 C 139.07 97.2273 113.891 C.3 0 **** -0.106
37965 C 138.588 97.0068 112.441 C.3 0 **** -0.159
37966 C 136.627 97.102 115.452 C.3 0 **** -0.159
37967 C 140.899 94.9103 113.918 C.3 0 **** -0.159
37968 C 136.209 94.9312 117.306 C.3 0 **** -0.159
37969 C 137.404 90.3125 118.856 C.3 0 **** -0.159
37970 C 138.809 87.8593 118.384 C.3 0 **** -0.159
37971 O 141.235 86.9735 117.658 O.3 0 **** -0.452
37972 C 141.931 83.2143 114.422 C.3 0 **** -0.159
37973 C 143.502 83.9004 112.139 C.3 0 **** -0.159
37974 O 146.792 87.0177 113.637 O.3 0 **** -0.452
37975 O 144.064 91.7357 114.377 O.3 0 **** -0.452
37976 O 145.983 92.9132 113.316 O.2 0 **** -0.419
37977 O 148.578 88.3554 112.481 O.2 0 **** -0.419
37978 C 155.701 87.0142 109.435 C.3 0 **** -0.159
37979 C 155.153 84.995 111.523 C.3 0 **** -0.159
37980 H 140.51 92.4059 114.549 H 0 **** 0.053
37981 H 141.367 93.0917 115.961 H 0 **** 0.053
37982 H 138.146 93.0601 118.423 H 0 **** 0.053
37983 H 136.995 92.3704 117.247 H 0 **** 0.053
37984 H 142.197 91.3253 115.071 H 0 **** 0.1268
37985 H 145.224 85.6538 112.993 H 0 **** 0.053
37986 H 144.826 84.7239 114.445 H 0 **** 0.053
37987 H 142.802 85.8992 112.475 H 0 **** 0.053
37988 H 141.107 85.0737 113.731 H 0 **** 0.053
37989 H 142.931 84.7247 116.122 H 0 **** 0.053
37990 H 141.323 85.4473 116.025 H 0 **** 0.053
37991 H 147.691 93.9555 111.965 H 0 **** 0.053
37992 H 149.126 93.5498 112.923 H 0 **** 0.053
37993 H 149.717 93.9917 110.555 H 0 **** 0.053
37994 H 148.557 92.7939 109.975 H 0 **** 0.053
37995 H 151.36 93.2127 108.583 H 0 **** 0.053
37996 H 151.664 94.1161 110.078 H 0 **** 0.053
37997 H 153.99 93.514 110.132 H 0 **** 0.053
37998 H 153.636 94.0379 108.478 H 0 **** 0.053
37999 H 154.972 91.94 108.395 H 0 **** 0.053
38000 H 153.326 91.5858 107.832 H 0 **** 0.053
38001 H 154.49 91.0877 110.635 H 0 **** 0.053
38002 H 153.449 89.1937 108.424 H 0 **** 0.053
38003 H 155.137 89.4055 108.951 H 0 **** 0.053
38004 H 151.67 87.6977 112.958 H 0 **** 0.1268
38005 H 153.093 85.6932 113.071 H 0 **** 0.1268
38006 H 140.148 97.4817 113.88 H 0 **** 0.053
38007 H 138.598 98.1448 114.286 H 0 **** 0.053
38008 H 137.505 96.8024 112.41 H 0 **** 0.053
38009 H 139.106 96.1559 111.97 H 0 **** 0.053
38010 H 138.774 97.8974 111.808 H 0 **** 0.053
38011 H 135.596 96.7637 115.672 H 0 **** 0.053
38012 H 136.559 97.5481 114.442 H 0 **** 0.053
38013 H 136.859 97.9277 116.161 H 0 **** 0.053
38014 H 140.869 94.0535 113.208 H 0 **** 0.053
38015 H 141.822 94.7938 114.527 H 0 **** 0.053
38016 H 141.067 95.7976 113.29 H 0 **** 0.053
38017 H 136.341 94.3225 118.221 H 0 **** 0.053
38018 H 135.307 94.5363 116.786 H 0 **** 0.053
38019 H 135.959 95.9435 117.677 H 0 **** 0.053
38020 H 137.522 89.651 119.732 H 0 **** 0.053
38021 H 136.468 90.0139 118.331 H 0 **** 0.053
38022 H 137.218 91.3173 119.299 H 0 **** 0.053
38023 H 138.891 86.98 117.707 H 0 **** 0.053
38024 H 137.711 87.8848 118.623 H 0 **** 0.053
38025 H 139.328 87.5911 119.34 H 0 **** 0.053
38026 H 142.038 86.4485 117.611 H 0 **** 0.41
38027 H 141.619 82.6546 113.53 H 0 **** 0.053
38028 H 141.17 83.0362 115.205 H 0 **** 0.053
38029 H 142.886 82.7901 114.789 H 0 **** 0.053
38030 H 144.233 84.2238 111.374 H 0 **** 0.053
38031 H 142.607 83.5427 111.61 H 0 **** 0.053
38032 H 143.958 83.0475 112.681 H 0 **** 0.053
38033 H 147.615 87.1777 113.151 H 0 **** 0.41
38034 H 144.601 92.469 114.041 H 0 **** 0.41
38035 H 155.348 87.1764 108.4 H 0 **** 0.053
38036 H 156.111 85.9862 109.449 H 0 **** 0.053
38037 H 156.559 87.6955 109.61 H 0 **** 0.053
38038 H 155.063 84.3701 110.615 H 0 **** 0.053
38039 H 154.828 84.364 112.369 H 0 **** 0.053
38040 H 156.225 85.2047 111.681 H 0 **** 0.053
38041 C 186.688 58.8793 144.447 C.2 0 **** 0
38042 C 187.703 58.1803 143.813 C.2 0 **** 0
38043 C 187.831 56.8144 144.01 C.2 0 **** 0
38044 C 186.934 56.1667 144.823 C.2 0 **** 0
38045 C 185.881 56.8516 145.417 C.2 0 **** 0
38046 C 185.754 58.2109 145.219 C.2 0 **** 0
38047 C 187.061 54.6776 145.076 C.3 0 **** -0.106
38048 C 188.291 53.9495 144.551 C.2 0 **** 0
38049 C 189.189 54.5877 143.741 C.2 0 **** 0
38050 C 188.958 56.0407 143.331 C.3 0 **** -0.106
38051 C 190.324 53.9021 143.295 C.2 0 **** 0
38052 C 190.594 52.6154 143.718 C.2 0 **** 0
38053 C 189.633 51.9338 144.456 C.2 0 **** 0
38054 C 188.483 52.6002 144.895 C.2 0 **** 0
38055 C 187.551 51.9374 145.679 C.2 0 **** -0.1268
38056 C 187.727 50.669 146.192 C.2 0 **** 0
38057 C 188.989 50.0703 145.842 C.2 0 **** 0
38058 C 189.784 50.5998 144.823 C.2 0 **** 0.042
38059 C 189.361 48.6889 146.417 C.3 0 **** 0
38060 C 188.344 47.9742 147.31 C.3 0 **** 0
38061 C 186.94 48.5981 147.438 C.2 0 **** 0
38062 C 186.675 49.9099 146.924 C.2 0 **** 0
38063 C 188.97 47.0955 148.414 C.3 0 **** -0.106
38064 C 190.099 47.8212 149.152 C.3 0 **** -0.053
38065 C 191.262 48.2121 148.19 C.3 0 **** -0.053
38066 C 190.829 48.2922 146.702 C.3 0 **** -0.106
38067 C 185.341 50.3532 147.02 C.2 0 **** 0.042
38068 C 184.373 49.5654 147.606 C.2 0 **** 0.052
38069 C 184.662 48.2899 148.067 C.2 0 **** 0.052
38070 C 185.929 47.7879 147.923 C.2 0 **** 0.042
38071 C 183.622 47.4033 148.7 C.2 0 **** 0.367
38072 C 182.246 47.9705 148.814 C.2 0 **** 0
38073 C 181.955 49.1945 148.357 C.2 0 **** 0
38074 C 182.963 50.0847 147.732 C.2 0 **** 0.367
38075 C 180.562 49.766 148.486 C.3 0 **** -0.106
38076 C 179.938 49.2778 149.817 C.3 0 **** -0.106
38077 C 180.017 47.7553 149.933 C.2 0 **** 0
38078 C 181.172 47.1034 149.446 C.2 0 **** 0.2405
38079 N 181.33 45.7654 149.535 N.2 0 **** -0.481
38080 C 180.402 45.0692 150.185 C.2 0 **** 0.2405
38081 C 179.211 45.6585 150.668 C.2 0 **** 0
38082 C 179.026 47.0105 150.523 C.2 0 **** 0
38083 C 177.772 47.7017 151.045 C.3 0 **** -0.106
38084 C 176.637 46.7191 151.358 C.3 0 **** -0.106
38085 C 177.169 45.5184 152.133 C.3 0 **** -0.106
38086 C 178.171 44.7399 151.259 C.3 0 **** -0.053
38087 C 178.862 43.6081 152.064 C.3 0 **** -0.106
38088 C 179.902 42.9359 151.208 C.2 0 **** 0
38089 C 180.664 43.681 150.306 C.2 0 **** 0
38090 C 181.662 43.0388 149.552 C.2 0 **** -0.1268
38091 C 181.894 41.6891 149.734 C.2 0 **** -0.1268
38092 C 181.172 40.9528 150.656 C.2 0 **** 0
38093 C 180.184 41.5884 151.408 C.2 0 **** 0
38094 C 184.589 58.9593 145.814 C.3 0 **** -0.106
38095 C 184.879 59.3717 147.272 C.3 0 **** -0.159
38096 C 186.61 60.3753 144.285 C.3 0 **** -0.159
38097 C 184.926 56.0642 146.284 C.3 0 **** -0.159
38098 C 188.677 58.9034 142.915 C.3 0 **** -0.159
38099 C 191.279 54.6487 142.364 C.3 0 **** -0.159
38100 C 191.94 52.0386 143.348 C.3 0 **** -0.159
38101 O 190.753 49.8151 144.265 O.3 0 **** -0.452
38102 C 192.439 47.2352 148.215 C.3 0 **** -0.159
38103 C 190.537 46.9341 150.323 C.3 0 **** -0.159
38104 O 186.259 46.5005 148.249 O.3 0 **** -0.452
38105 O 184.984 51.5636 146.522 O.3 0 **** -0.452
38106 O 182.666 51.1662 147.338 O.2 0 **** -0.419
38107 O 183.91 46.3214 149.123 O.2 0 **** -0.419
38108 C 179.419 40.7958 152.454 C.3 0 **** -0.159
38109 C 181.506 39.4838 150.823 C.3 0 **** -0.159
38110 H 187.036 54.5285 146.18 H 0 **** 0.053
38111 H 186.152 54.1735 144.665 H 0 **** 0.053
38112 H 188.779 56.07 142.229 H 0 **** 0.053
38113 H 189.905 56.596 143.51 H 0 **** 0.053
38114 H 186.679 52.5072 145.91 H 0 **** 0.1268
38115 H 188.223 46.7802 149.144 H 0 **** 0.053
38116 H 189.354 46.2049 147.911 H 0 **** 0.053
38117 H 189.68 48.7519 149.576 H 0 **** 0.053
38118 H 191.623 49.2017 148.499 H 0 **** 0.053
38119 H 190.919 47.2999 146.251 H 0 **** 0.053
38120 H 191.53 48.9548 146.18 H 0 **** 0.053
38121 H 180.55 50.871 148.465 H 0 **** 0.053
38122 H 179.96 49.4255 147.626 H 0 **** 0.053
38123 H 178.906 49.668 149.858 H 0 **** 0.053
38124 H 180.476 49.761 150.661 H 0 **** 0.053
38125 H 178.021 48.2642 151.965 H 0 **** 0.053
38126 H 177.386 48.4403 150.319 H 0 **** 0.053
38127 H 176.18 46.3632 150.415 H 0 **** 0.053
38128 H 175.832 47.2254 151.922 H 0 **** 0.053
38129 H 176.347 44.8486 152.449 H 0 **** 0.053
38130 H 177.672 45.8634 153.055 H 0 **** 0.053
38131 H 177.593 44.267 150.428 H 0 **** 0.053
38132 H 179.338 44.0464 152.971 H 0 **** 0.053
38133 H 178.078 42.9095 152.429 H 0 **** 0.053
38134 H 182.264 43.5979 148.825 H 0 **** 0.1268
38135 H 182.681 41.1934 149.143 H 0 **** 0.1268
38136 H 183.653 58.3678 145.783 H 0 **** 0.053
38137 H 184.334 59.8638 145.233 H 0 **** 0.053
38138 H 185.778 60.0073 147.334 H 0 **** 0.053
38139 H 185.043 58.491 147.915 H 0 **** 0.053
38140 H 184.038 59.9461 147.71 H 0 **** 0.053
38141 H 187.601 60.8448 144.129 H 0 **** 0.053
38142 H 186.205 60.8832 145.181 H 0 **** 0.053
38143 H 185.969 60.6688 143.424 H 0 **** 0.053
38144 H 185.446 55.6068 147.156 H 0 **** 0.053
38145 H 184.444 55.2349 145.723 H 0 **** 0.053
38146 H 184.101 56.6483 146.718 H 0 **** 0.053
38147 H 189.137 58.2523 142.147 H 0 **** 0.053
38148 H 189.513 59.3534 143.496 H 0 **** 0.053
38149 H 188.197 59.7182 142.341 H 0 **** 0.053
38150 H 191.781 53.9777 141.645 H 0 **** 0.053
38151 H 192.072 55.1904 142.93 H 0 **** 0.053
38152 H 190.771 55.4029 141.722 H 0 **** 0.053
38153 H 192.402 51.4803 144.192 H 0 **** 0.053
38154 H 192.726 52.8011 143.096 H 0 **** 0.053
38155 H 191.896 51.3394 142.472 H 0 **** 0.053
38156 H 190.551 48.8904 144.43 H 0 **** 0.41
38157 H 192.925 47.2104 149.2 H 0 **** 0.053
38158 H 193.207 47.536 147.478 H 0 **** 0.053
38159 H 192.116 46.2084 147.954 H 0 **** 0.053
38160 H 189.692 46.7522 151.013 H 0 **** 0.053
38161 H 191.342 47.4074 150.905 H 0 **** 0.053
38162 H 190.889 45.9428 149.974 H 0 **** 0.053
38163 H 185.502 46.0995 148.702 H 0 **** 0.41
38164 H 184.049 51.7369 146.709 H 0 **** 0.41
38165 H 179.409 41.3163 153.43 H 0 **** 0.053
38166 H 179.85 39.7968 152.657 H 0 **** 0.053
38167 H 178.365 40.6262 152.151 H 0 **** 0.053
38168 H 181.879 39.2589 151.839 H 0 **** 0.053
38169 H 182.292 39.1538 150.121 H 0 **** 0.053
38170 H 180.629 38.8394 150.637 H 0 **** 0.053
38171 C 174.027 39.9045 146.443 C.2 0 **** 0
38172 C 173.611 39.4241 145.211 C.2 0 **** 0
38173 C 174.519 38.8086 144.365 C.2 0 **** 0
38174 C 175.824 38.6695 144.769 C.2 0 **** 0
38175 C 176.236 39.0989 146.025 C.2 0 **** 0
38176 C 175.33 39.7096 146.867 C.2 0 **** 0
38177 C 176.846 38.0212 143.856 C.3 0 **** -0.106
38178 C 176.44 37.6826 142.428 C.2 0 **** 0
38179 C 175.143 37.8195 142.018 C.2 0 **** 0
38180 C 174.073 38.2947 142.999 C.3 0 **** -0.106
38181 C 174.804 37.5267 140.693 C.2 0 **** 0
38182 C 175.768 37.1731 139.77 C.2 0 **** 0
38183 C 177.065 36.9357 140.209 C.2 0 **** 0
38184 C 177.417 37.2068 141.537 C.2 0 **** 0
38185 C 178.725 37.0247 141.962 C.2 0 **** -0.1268
38186 C 179.778 36.7113 141.127 C.2 0 **** 0
38187 C 179.404 36.5859 139.742 C.2 0 **** 0
38188 C 178.065 36.47 139.361 C.2 0 **** 0.042
38189 C 180.492 36.3236 138.682 C.3 0 **** 0
38190 C 181.94 36.157 139.151 C.3 0 **** 0
38191 C 182.198 36.0847 140.669 C.2 0 **** 0
38192 C 181.152 36.3892 141.601 C.2 0 **** 0
38193 C 182.998 36.665 138.148 C.3 0 **** -0.106
38194 C 182.642 38.0469 137.591 C.3 0 **** -0.053
38195 C 181.284 38.0285 136.825 C.3 0 **** -0.053
38196 C 180.362 36.8493 137.232 C.3 0 **** -0.106
38197 C 181.469 36.2146 142.963 C.2 0 **** 0.042
38198 C 182.727 35.8034 143.351 C.2 0 **** 0.052
38199 C 183.704 35.4918 142.417 C.2 0 **** 0.052
38200 C 183.415 35.572 141.081 C.2 0 **** 0.042
38201 C 185.081 35.0286 142.812 C.2 0 **** 0.367
38202 C 185.352 34.9233 144.276 C.2 0 **** 0
38203 C 184.41 35.2076 145.183 C.2 0 **** 0
38204 C 183.048 35.6661 144.818 C.2 0 **** 0.367
38205 C 184.696 35.109 146.664 C.3 0 **** -0.106
38206 C 186.162 35.5367 146.925 C.3 0 **** -0.106
38207 C 187.127 34.7537 146.035 C.2 0 **** 0
38208 C 186.731 34.4589 144.71 C.2 0 **** 0.2405
38209 N 187.536 33.7945 143.854 N.2 0 **** -0.481
38210 C 188.768 33.4988 144.257 C.2 0 **** 0.2405
38211 C 189.212 33.74 145.578 C.2 0 **** 0
38212 C 188.37 34.3617 146.465 C.2 0 **** 0
38213 C 188.805 34.667 147.893 C.3 0 **** -0.106
38214 C 190.053 33.8831 148.316 C.3 0 **** -0.106
38215 C 191.111 33.9319 147.219 C.3 0 **** -0.106
38216 C 190.58 33.2286 145.955 C.3 0 **** -0.053
38217 C 191.556 33.3992 144.761 C.3 0 **** -0.106
38218 C 190.959 32.7856 143.523 C.2 0 **** 0
38219 C 189.585 32.8675 143.286 C.2 0 **** 0
38220 C 189.057 32.3278 142.099 C.2 0 **** -0.1268
38221 C 189.906 31.7515 141.174 C.2 0 **** -0.1268
38222 C 191.273 31.7045 141.382 C.2 0 **** 0
38223 C 191.799 32.2421 142.557 C.2 0 **** 0
38224 C 175.747 40.1346 148.252 C.3 0 **** -0.106
38225 C 176.408 41.5293 148.232 C.3 0 **** -0.159
38226 C 173.046 40.6392 147.318 C.3 0 **** -0.159
38227 C 177.685 38.8936 146.402 C.3 0 **** -0.159
38228 C 172.172 39.576 144.783 C.3 0 **** -0.159
38229 C 173.335 37.6625 140.294 C.3 0 **** -0.159
38230 C 175.335 37.0785 138.326 C.3 0 **** -0.159
38231 O 177.772 35.9774 138.12 O.3 0 **** -0.452
38232 C 181.434 37.9169 135.307 C.3 0 **** -0.159
38233 C 183.825 38.5273 136.742 C.3 0 **** -0.159
38234 O 184.289 35.1732 140.106 O.3 0 **** -0.452
38235 O 180.532 36.436 143.919 O.3 0 **** -0.452
38236 O 182.238 35.9093 145.653 O.2 0 **** -0.419
38237 O 185.916 34.8032 141.985 O.2 0 **** -0.419
38238 C 193.303 32.2332 142.771 C.3 0 **** -0.159
38239 C 192.143 31.0846 140.307 C.3 0 **** -0.159
38240 H 177.718 38.7128 143.797 H 0 **** 0.053
38241 H 177.213 37.0874 144.348 H 0 **** 0.053
38242 H 173.353 37.4572 143.165 H 0 **** 0.053
38243 H 173.498 39.1076 142.503 H 0 **** 0.053
38244 H 178.881 37.195 143.003 H 0 **** 0.1268
38245 H 183.988 36.7193 138.605 H 0 **** 0.053
38246 H 183.033 35.9275 137.343 H 0 **** 0.053
38247 H 182.541 38.7387 138.447 H 0 **** 0.053
38248 H 180.766 38.9685 137.057 H 0 **** 0.053
38249 H 180.608 35.977 136.62 H 0 **** 0.053
38250 H 179.328 37.1315 137.002 H 0 **** 0.053
38251 H 184.021 35.7397 147.272 H 0 **** 0.053
38252 H 184.531 34.0662 146.986 H 0 **** 0.053
38253 H 186.355 35.4051 148.003 H 0 **** 0.053
38254 H 186.253 36.6272 146.733 H 0 **** 0.053
38255 H 189.015 35.7498 147.988 H 0 **** 0.053
38256 H 188.003 34.4372 148.618 H 0 **** 0.053
38257 H 189.784 32.827 148.508 H 0 **** 0.053
38258 H 190.455 34.2797 149.267 H 0 **** 0.053
38259 H 192.053 33.4525 147.548 H 0 **** 0.053
38260 H 191.355 34.9837 146.983 H 0 **** 0.053
38261 H 190.506 32.1376 146.185 H 0 **** 0.053
38262 H 191.743 34.485 144.598 H 0 **** 0.053
38263 H 192.534 32.952 145.043 H 0 **** 0.053
38264 H 187.98 32.365 141.895 H 0 **** 0.1268
38265 H 189.486 31.3345 140.244 H 0 **** 0.1268
38266 H 176.443 39.4104 148.719 H 0 **** 0.053
38267 H 174.896 40.1554 148.956 H 0 **** 0.053
38268 H 175.722 42.287 147.82 H 0 **** 0.053
38269 H 177.323 41.5317 147.617 H 0 **** 0.053
38270 H 176.695 41.8615 149.25 H 0 **** 0.053
38271 H 172.271 41.1788 146.739 H 0 **** 0.053
38272 H 173.523 41.4254 147.933 H 0 **** 0.053
38273 H 172.515 39.9545 148.016 H 0 **** 0.053
38274 H 178.368 39.4439 145.717 H 0 **** 0.053
38275 H 177.976 37.8219 146.359 H 0 **** 0.053
38276 H 177.956 39.2354 147.412 H 0 **** 0.053
38277 H 171.847 38.8177 144.044 H 0 **** 0.053
38278 H 171.984 40.5715 144.323 H 0 **** 0.053
38279 H 171.465 39.4636 145.628 H 0 **** 0.053
38280 H 173.04 36.943 139.509 H 0 **** 0.053
38281 H 173.098 38.685 139.92 H 0 **** 0.053
38282 H 172.629 37.4548 141.13 H 0 **** 0.053
38283 H 176.083 37.5279 137.635 H 0 **** 0.053
38284 H 174.397 37.6451 138.077 H 0 **** 0.053
38285 H 175.16 36.0251 137.985 H 0 **** 0.053
38286 H 178.52 35.4722 137.791 H 0 **** 0.41
38287 H 181.95 38.7891 134.884 H 0 **** 0.053
38288 H 180.44 37.8569 134.824 H 0 **** 0.053
38289 H 181.993 37.0032 135.023 H 0 **** 0.053
38290 H 184.744 38.593 137.355 H 0 **** 0.053
38291 H 183.637 39.5262 136.321 H 0 **** 0.053
38292 H 184.04 37.8271 135.91 H 0 **** 0.053
38293 H 185.139 34.9726 140.525 H 0 **** 0.41
38294 H 180.92 36.3183 144.799 H 0 **** 0.41
38295 H 193.677 33.2332 143.06 H 0 **** 0.053
38296 H 193.879 31.9527 141.868 H 0 **** 0.053
38297 H 193.601 31.5182 143.566 H 0 **** 0.053
38298 H 192.845 31.8189 139.871 H 0 **** 0.053
38299 H 191.547 30.6865 139.468 H 0 **** 0.053
38300 H 192.739 30.2409 140.696 H 0 **** 0.053
38301 C1 168.337 57.4413 144.015 C.ar 0 **** 0.042
38302 C2 167.019 57.514 143.605 C.ar 0 **** -0.1268
38303 C3 166.108 58.3003 144.29 C.ar 0 **** 0
38304 C4 166.494 59.0372 145.411 C.ar 0 **** 0
38305 C5 167.833 58.9673 145.809 C.ar 0 **** -0.1268
38306 C6 168.75 58.1731 145.137 C.ar 0 **** 0
38307 C7 165.315 59.7401 145.893 C.ar 0 **** 0
38308 C8 164.263 59.4233 145.051 C.ar 0 **** 0
38309 C9 164.657 58.4834 143.963 C.3 0 **** -0.106
38310 C10 163.006 59.9755 145.27 C.ar 0 **** 0
38311 C11 162.786 60.8623 146.344 C.ar 0 **** 0
38312 C12 163.901 61.1443 147.181 C.ar 0 **** 0
38313 C13 165.163 60.5782 146.969 C.ar 0 **** 0
38314 C14 166.31 60.9116 147.882 C.3 0 **** -0.106
38315 C15 165.815 61.1798 149.303 C.3 0 **** -0.106
38316 C16 164.882 62.3584 149.247 C.3 0 **** -0.106
38317 C17 163.686 62.0954 148.357 C.ar 0 **** 0
38318 C18 162.493 62.6987 148.598 C.ar 0 **** 0
38319 C19 161.418 62.4645 147.787 C.ar 0 **** 0
38320 C20 161.495 61.4523 146.577 C.ar 0 **** 0
38321 C21 160.419 61.0379 145.695 C.ar 0 **** 0
38322 C22 160.74 60.179 144.639 C.ar 0 **** 0
38323 C23 161.964 59.6516 144.416 C.ar 0 **** 0.042
38324 C24 160.108 63.1872 148.062 C.3 0 **** -0.106
38325 C25 160.155 64.3404 149.106 C.ar 0 **** 0
38326 C26 161.256 64.5069 149.91 C.ar 0 **** 0
38327 C27 162.462 63.6319 149.805 C.3 0 **** -0.106
38328 C28 161.277 65.5056 150.882 C.ar 0 **** 0.042
38329 C29 160.201 66.3523 151.088 C.ar 0 **** 0
38330 C30 159.104 66.1767 150.259 C.ar 0 **** 0
38331 C31 159.064 65.1883 149.279 C.ar 0 **** 0
38332 C32 157.852 67.0606 150.386 C.ar 0 **** 0
38333 C33 157.945 68.1232 151.486 C.3 0 **** -0.106
38334 C34 158.816 67.6798 152.66 C.3 0 **** -0.106
38335 C35 160.231 67.4318 152.143 C.3 0 **** -0.106
38336 C36 157.814 65.0843 148.428 C.ar 0 **** -0.1268
38337 C37 156.771 65.9283 148.642 C.ar 0 **** 0.0265
38338 C38 156.774 66.8832 149.582 C.ar 0 **** -0.1268
38339 C39 159.637 59.805 143.719 C.3 0 **** -0.106
38340 C40 158.54 60.54 144.419 C.ar 0 **** 0
38341 C41 158.979 61.2447 145.541 C.ar 0 **** 0
38342 C42 157.973 61.9169 146.265 C.ar 0 **** -0.1268
38343 C43 156.625 61.9114 145.85 C.ar 0 **** 0
38344 C44 156.223 61.2033 144.698 C.ar 0 **** 0
38345 C45 157.206 60.5005 143.983 C.ar 0 **** 0
38346 C46 156.819 59.7585 142.846 C.ar 0 **** -0.1268
38347 C47 155.507 59.7004 142.404 C.ar 0 **** 0
38348 C48 154.553 60.3969 143.124 C.ar 0 **** -0.1268
38349 C49 154.876 61.1507 144.265 C.ar 0 **** 0
38350 C50 153.906 61.8505 145.004 C.ar 0 **** 0.042
38351 C51 154.268 62.5596 146.132 C.ar 0 **** -0.1268
38352 C52 155.593 62.5879 146.558 C.ar 0 **** -0.1268
38353 O53 169.245 56.6643 143.336 O.3 0 **** -0.452
38354 C54 170.2 58.1195 145.592 C.3 0 **** -0.159
38355 O55 162.153 58.8206 143.377 O.3 0 **** -0.452
38356 C56 155.236 58.8529 141.166 C.3 0 **** -0.106
38357 C57 153.799 58.9917 140.649 C.3 0 **** -0.159
38358 O58 155.681 65.7937 147.868 O.3 0 **** -0.4365
38359 O59 162.36 65.7032 151.694 O.3 0 **** -0.452
38360 O60 152.594 61.8843 144.696 O.3 0 **** -0.452
38361 H61 166.653 56.9509 142.716 H 0 **** 0.1268
38362 H62 168.245 59.5309 146.657 H 0 **** 0.1268
38363 H63 164.132 57.5121 144.008 H 0 **** 0.053
38364 H64 164.55 58.911 142.949 H 0 **** 0.053
38365 H65 167.021 60.0939 147.947 H 0 **** 0.053
38366 H66 166.85 61.814 147.519 H 0 **** 0.053
38367 H67 165.312 60.2727 149.719 H 0 **** 0.053
38368 H68 166.688 61.3922 149.989 H 0 **** 0.053
38369 H69 164.567 62.5941 150.271 H 0 **** 0.053
38370 H70 165.44 63.2354 148.875 H 0 **** 0.053
38371 H71 159.745 63.6176 147.105 H 0 **** 0.053
38372 H72 163.341 64.2794 149.732 H 0 **** 0.053
38373 H73 158.365 69.0512 151.047 H 0 **** 0.053
38374 H74 156.922 68.3577 151.809 H 0 **** 0.053
38375 H75 158.824 68.4566 153.434 H 0 **** 0.053
38376 H76 158.405 66.7698 153.12 H 0 **** 0.053
38377 H77 160.64 68.3519 151.704 H 0 **** 0.053
38378 H78 160.886 67.1438 152.958 H 0 **** 0.053
38379 H79 157.796 64.3392 147.656 H 0 **** 0.1268
38380 H80 155.934 67.5441 149.725 H 0 **** 0.1268
38381 H81 159.776 60.1864 142.695 H 0 **** 0.053
38382 H82 159.433 58.7224 143.7 H 0 **** 0.053
38383 H83 158.128 62.4583 147.187 H 0 **** 0.1268
38384 H84 157.583 59.1993 142.275 H 0 **** 0.1268
38385 H85 153.522 60.3496 142.784 H 0 **** 0.1268
38386 H86 153.523 63.1107 146.731 H 0 **** 0.1268
38387 H87 155.871 63.1378 147.501 H 0 **** 0.1268
38388 H88 168.793 56.2457 142.616 H 0 **** 0.41
38389 H89 170.632 57.129 145.407 H 0 **** 0.053
38390 H90 170.3 58.3162 146.669 H 0 **** 0.053
38391 H91 170.805 58.8596 145.045 H 0 **** 0.053
38392 H92 161.344 58.6999 142.899 H 0 **** 0.41
38393 H93 155.922 59.1442 140.364 H 0 **** 0.053
38394 H94 153.636 58.3737 139.744 H 0 **** 0.053
38395 H95 153.562 60.0375 140.375 H 0 **** 0.053
38396 H96 153.06 58.6577 141.401 H 0 **** 0.053
38397 H97 155.823 65.1562 147.186 H 0 **** 0.41
38398 H98 163.035 65.0755 151.493 H 0 **** 0.41
38399 H99 152.44 61.3666 143.916 H 0 **** 0.41
38400 H100 159.414 62.4288 148.479 H 0 **** 0.053
38401 H101 162.542 63.014 150.707 H 0 **** 0.053
38402 H102 155.429 57.7983 141.393 H 0 **** 0.053
38403 C1 132.778 84.8959 155.458 C.ar 0 **** 0.042
38404 C2 134.09 84.4632 155.41 C.ar 0 **** -0.1268
38405 C3 134.916 84.5862 156.515 C.ar 0 **** 0
38406 C4 134.447 85.1495 157.703 C.ar 0 **** 0
38407 C5 133.114 85.5713 157.745 C.ar 0 **** -0.1268
38408 C6 132.284 85.464 156.64 C.ar 0 **** 0
38409 C7 135.55 85.136 158.652 C.ar 0 **** 0
38410 C8 136.638 84.5583 158.023 C.ar 0 **** 0
38411 C9 136.349 84.1597 156.616 C.3 0 **** -0.106
38412 C10 137.837 84.4012 158.71 C.ar 0 **** 0
38413 C11 137.959 84.8234 160.05 C.ar 0 **** 0
38414 C12 136.81 85.4176 160.642 C.ar 0 **** 0
38415 C13 135.608 85.5884 159.947 C.ar 0 **** 0
38416 C14 134.423 86.2207 160.62 C.3 0 **** -0.106
38417 C15 134.869 87.2575 161.651 C.3 0 **** -0.106
38418 C16 135.692 86.5439 162.689 C.3 0 **** -0.106
38419 C17 136.921 85.8911 162.091 C.ar 0 **** 0
38420 C18 138.05 85.7275 162.828 C.ar 0 **** 0
38421 C19 139.154 85.1308 162.286 C.ar 0 **** 0
38422 C20 139.187 84.6566 160.78 C.ar 0 **** 0
38423 C21 140.31 84.0961 160.049 C.ar 0 **** 0
38424 C22 140.085 83.6778 158.733 C.ar 0 **** 0
38425 C23 138.917 83.8186 158.067 C.ar 0 **** 0.042
38426 C24 140.389 84.9272 163.152 C.3 0 **** -0.106
38427 C25 140.222 85.1906 164.677 C.ar 0 **** 0
38428 C26 139.098 85.8189 165.155 C.ar 0 **** 0
38429 C27 137.978 86.2434 164.262 C.3 0 **** -0.106
38430 C28 138.971 86.1024 166.514 C.ar 0 **** 0.042
38431 C29 139.962 85.7833 167.426 C.ar 0 **** 0
38432 C30 141.084 85.1391 166.926 C.ar 0 **** 0
38433 C31 141.228 84.8418 165.574 C.ar 0 **** 0
38434 C32 142.248 84.7276 167.842 C.ar 0 **** 0
38435 C33 142.042 85.0874 169.317 C.3 0 **** -0.106
38436 C34 141.197 86.3464 169.502 C.3 0 **** -0.106
38437 C35 139.818 86.095 168.896 C.3 0 **** -0.106
38438 C36 142.495 84.1347 165.136 C.ar 0 **** -0.1268
38439 C37 143.455 83.8245 166.047 C.ar 0 **** 0.0265
38440 C38 143.35 84.1082 167.353 C.ar 0 **** -0.1268
38441 C39 141.231 83.0633 158.019 C.3 0 **** -0.106
38442 C40 142.245 83.2192 159.104 C.ar 0 **** 0
38443 C41 141.727 83.8033 160.262 C.ar 0 **** 0
38444 C42 142.657 84.0169 161.301 C.ar 0 **** -0.1268
38445 C43 144.006 83.621 161.187 C.ar 0 **** 0
38446 C44 144.488 83.0149 160.007 C.ar 0 **** 0
38447 C45 143.584 82.8252 158.95 C.ar 0 **** 0
38448 C46 144.053 82.2504 157.748 C.ar 0 **** -0.1268
38449 C47 145.373 81.8619 157.573 C.ar 0 **** 0
38450 C48 146.247 82.0602 158.625 C.ar 0 **** -0.1268
38451 C49 145.841 82.6287 159.844 C.ar 0 **** 0
38452 C50 146.732 82.8404 160.912 C.ar 0 **** 0.042
38453 C51 146.29 83.425 162.083 C.ar 0 **** -0.1268
38454 C52 144.961 83.8173 162.223 C.ar 0 **** -0.1268
38455 O53 131.955 84.7742 154.364 O.3 0 **** -0.452
38456 C54 130.838 85.929 156.717 C.3 0 **** -0.159
38457 O55 138.821 83.3961 156.794 O.3 0 **** -0.452
38458 C56 145.738 81.2632 156.218 C.3 0 **** -0.106
38459 C57 147.163 80.7015 156.178 C.3 0 **** -0.159
38460 O58 144.564 83.2031 165.61 O.3 0 **** -0.4365
38461 O59 137.861 86.7193 167.024 O.3 0 **** -0.452
38462 O60 148.039 82.5132 160.888 O.3 0 **** -0.452
38463 H61 134.519 84.0022 154.491 H 0 **** 0.1268
38464 H62 132.64 85.9986 158.639 H 0 **** 0.1268
38465 H63 136.959 84.7001 155.87 H 0 **** 0.053
38466 H64 136.431 83.0715 156.439 H 0 **** 0.053
38467 H65 133.787 86.7406 159.909 H 0 **** 0.053
38468 H66 133.809 85.4504 161.136 H 0 **** 0.053
38469 H67 135.446 88.0762 161.156 H 0 **** 0.053
38470 H68 133.971 87.7535 162.124 H 0 **** 0.053
38471 H69 135.969 87.2694 163.463 H 0 **** 0.053
38472 H70 135.062 85.7798 163.177 H 0 **** 0.053
38473 H71 140.725 83.8763 163.029 H 0 **** 0.053
38474 H72 137.045 85.866 164.692 H 0 **** 0.053
38475 H73 141.547 84.2339 169.824 H 0 **** 0.053
38476 H74 143.035 85.1964 169.774 H 0 **** 0.053
38477 H75 141.107 86.583 170.57 H 0 **** 0.053
38478 H76 141.683 87.2075 169.021 H 0 **** 0.053
38479 H77 139.334 85.2462 169.398 H 0 **** 0.053
38480 H78 139.18 86.9601 169.037 H 0 **** 0.053
38481 H79 142.593 83.8824 164.097 H 0 **** 0.1268
38482 H80 144.124 83.8485 168.057 H 0 **** 0.1268
38483 H81 141.073 82.0004 157.777 H 0 **** 0.053
38484 H82 141.533 83.6208 157.118 H 0 **** 0.053
38485 H83 142.44 84.5089 162.237 H 0 **** 0.1268
38486 H84 143.353 82.0958 156.908 H 0 **** 0.1268
38487 H85 147.284 81.7619 158.49 H 0 **** 0.1268
38488 H86 146.972 83.608 162.929 H 0 **** 0.1268
38489 H87 144.62 84.3281 163.167 H 0 **** 0.1268
38490 H88 132.451 84.3734 153.664 H 0 **** 0.41
38491 H89 130.5 86.32 155.75 H 0 **** 0.053
38492 H90 130.704 86.7347 157.452 H 0 **** 0.053
38493 H91 130.176 85.0922 156.992 H 0 **** 0.053
38494 H92 139.644 83.0215 156.511 H 0 **** 0.41
38495 H93 145.04 80.4562 155.973 H 0 **** 0.053
38496 H94 147.395 80.2654 155.186 H 0 **** 0.053
38497 H95 147.309 79.9003 156.928 H 0 **** 0.053
38498 H96 147.918 81.4885 156.364 H 0 **** 0.053
38499 H97 144.487 82.9793 164.696 H 0 **** 0.41
38500 H98 137.251 86.9147 166.331 H 0 **** 0.41
38501 H99 148.253 82.1352 160.044 H 0 **** 0.41
38502 H100 141.142 85.6608 162.799 H 0 **** 0.053
38503 H101 137.941 87.3383 164.222 H 0 **** 0.053
38504 H102 145.639 82.0274 155.439 H 0 **** 0.053
38505 C1 119.307 20.2042 119.233 C.ar 0 **** 0.042
38506 C2 118.876 18.8982 119.092 C.ar 0 **** -0.1268
38507 C3 119.084 18.2079 117.91 C.ar 0 **** 0
38508 C4 119.732 18.8111 116.831 C.ar 0 **** 0
38509 C5 120.175 20.1282 116.987 C.ar 0 **** -0.1268
38510 C6 119.959 20.8322 118.163 C.ar 0 **** 0
38511 C7 119.785 17.8306 115.757 C.ar 0 **** 0
38512 C8 119.187 16.6704 116.217 C.ar 0 **** 0
38513 C9 118.683 16.7947 117.614 C.3 0 **** -0.106
38514 C10 119.113 15.5518 115.394 C.ar 0 **** 0
38515 C11 119.644 15.5827 114.088 C.ar 0 **** 0
38516 C12 120.238 16.8038 113.667 C.ar 0 **** 0
38517 C13 120.301 17.9337 114.49 C.ar 0 **** 0
38518 C14 120.942 19.2001 113.996 C.3 0 **** -0.106
38519 C15 120.75 19.3563 112.487 C.3 0 **** -0.106
38520 C16 121.415 18.1839 111.819 C.3 0 **** -0.106
38521 C17 120.812 16.8643 112.252 C.ar 0 **** 0
38522 C18 120.808 15.794 111.417 C.ar 0 **** 0
38523 C19 120.27 14.6026 111.815 C.ar 0 **** 0
38524 C20 119.587 14.4306 113.228 C.ar 0 **** 0
38525 C21 118.898 13.2617 113.746 C.ar 0 **** 0
38526 C22 118.432 13.3145 115.064 C.ar 0 **** 0
38527 C23 118.515 14.3962 115.87 C.ar 0 **** 0.042
38528 C24 120.317 13.4115 110.869 C.3 0 **** -0.106
38529 C25 121.203 13.5661 109.598 C.ar 0 **** 0
38530 C26 121.693 14.7973 109.238 C.ar 0 **** 0
38531 C27 121.439 16.0271 110.047 C.3 0 **** -0.106
38532 C28 122.442 14.9456 108.072 C.ar 0 **** 0.042
38533 C29 122.71 13.8797 107.231 C.ar 0 **** 0
38534 C30 122.218 12.6426 107.618 C.ar 0 **** 0
38535 C31 121.472 12.4717 108.781 C.ar 0 **** 0
38536 C32 122.458 11.382 106.77 C.ar 0 **** 0
38537 C33 123.274 11.6298 105.498 C.3 0 **** -0.106
38538 C34 123.064 13.0309 104.927 C.3 0 **** -0.106
38539 C35 123.522 14.0489 105.969 C.3 0 **** -0.106
38540 C36 120.983 11.0755 109.109 C.ar 0 **** -0.1268
38541 C37 121.263 10.0397 108.275 C.ar 0 **** 0.0265
38542 C38 121.97 10.1731 107.144 C.ar 0 **** -0.1268
38543 C39 117.774 12.094 115.593 C.3 0 **** -0.106
38544 C40 117.857 11.2715 114.348 C.ar 0 **** 0
38545 C41 118.497 11.9292 113.296 C.ar 0 **** 0
38546 C42 118.558 11.2127 112.082 C.ar 0 **** -0.1268
38547 C43 118.047 9.90345 111.962 C.ar 0 **** 0
38548 C44 117.424 9.26412 113.055 C.ar 0 **** 0
38549 C45 117.324 9.97527 114.261 C.ar 0 **** 0
38550 C46 116.676 9.36602 115.357 C.ar 0 **** -0.1268
38551 C47 116.136 8.09036 115.29 C.ar 0 **** 0
38552 C48 116.243 7.4086 114.092 C.ar 0 **** -0.1268
38553 C49 116.875 7.96176 112.966 C.ar 0 **** 0
38554 C50 116.977 7.27268 111.744 C.ar 0 **** 0.042
38555 C51 117.585 7.86863 110.657 C.ar 0 **** -0.1268
38556 C52 118.104 9.15726 110.752 C.ar 0 **** -0.1268
38557 O53 119.105 20.8893 120.407 O.3 0 **** -0.452
38558 C54 120.454 22.2635 118.304 C.3 0 **** -0.159
38559 O55 118.016 14.3382 117.117 O.3 0 **** -0.452
38560 C56 115.458 7.56444 116.55 C.3 0 **** -0.106
38561 C57 115.053 6.09002 116.44 C.3 0 **** -0.159
38562 O58 120.803 8.82186 108.605 O.3 0 **** -0.4365
38563 O59 122.951 16.1563 107.687 O.3 0 **** -0.452
38564 O60 116.506 6.02783 111.533 O.3 0 **** -0.452
38565 H61 118.355 18.3635 119.92 H 0 **** 0.1268
38566 H62 120.719 20.6824 116.211 H 0 **** 0.1268
38567 H63 117.587 16.6848 117.7 H 0 **** 0.053
38568 H64 119.177 16.1066 118.325 H 0 **** 0.053
38569 H65 120.503 20.0792 114.459 H 0 **** 0.053
38570 H66 122.032 19.1985 114.215 H 0 **** 0.053
38571 H67 119.662 19.4138 112.236 H 0 **** 0.053
38572 H68 121.202 20.3291 112.132 H 0 **** 0.053
38573 H69 121.333 18.3174 110.733 H 0 **** 0.053
38574 H70 122.492 18.2013 112.062 H 0 **** 0.053
38575 H71 120.696 12.5361 111.436 H 0 **** 0.053
38576 H72 122.401 16.5209 110.218 H 0 **** 0.053
38577 H73 124.348 11.485 105.732 H 0 **** 0.053
38578 H74 122.999 10.8531 104.77 H 0 **** 0.053
38579 H75 123.639 13.1485 104.001 H 0 **** 0.053
38580 H76 122.006 13.1863 104.671 H 0 **** 0.053
38581 H77 124.585 13.8989 106.203 H 0 **** 0.053
38582 H78 123.415 15.0575 105.585 H 0 **** 0.053
38583 H79 120.429 10.9414 110.018 H 0 **** 0.1268
38584 H80 122.182 9.33167 106.503 H 0 **** 0.1268
38585 H81 118.332 11.6205 116.415 H 0 **** 0.053
38586 H82 116.724 12.2565 115.886 H 0 **** 0.053
38587 H83 118.963 11.5944 111.156 H 0 **** 0.1268
38588 H84 116.588 9.91598 116.312 H 0 **** 0.1268
38589 H85 115.815 6.41084 114.034 H 0 **** 0.1268
38590 H86 117.667 7.35248 109.687 H 0 **** 0.1268
38591 H87 118.564 9.64844 109.849 H 0 **** 0.1268
38592 H88 118.638 20.3157 121 H 0 **** 0.41
38593 H89 119.781 22.8492 118.942 H 0 **** 0.053
38594 H90 120.504 22.778 117.335 H 0 **** 0.053
38595 H91 121.456 22.2836 118.762 H 0 **** 0.053
38596 H92 117.637 13.486 117.283 H 0 **** 0.41
38597 H93 116.133 7.67666 117.405 H 0 **** 0.053
38598 H94 114.573 5.73452 117.373 H 0 **** 0.053
38599 H95 115.929 5.43759 116.257 H 0 **** 0.053
38600 H96 114.325 5.92538 115.624 H 0 **** 0.053
38601 H97 120.391 8.83178 109.454 H 0 **** 0.41
38602 H98 122.709 16.8239 108.309 H 0 **** 0.41
38603 H99 116.077 5.71546 112.32 H 0 **** 0.41
38604 H100 119.281 13.2653 110.499 H 0 **** 0.053
38605 H101 120.782 16.7019 109.487 H 0 **** 0.053
38606 H102 114.563 8.16121 116.762 H 0 **** 0.053
38607 C1 96.0297 15.4518 129.625 C.ar 0 **** 0.042
38608 C2 96.2744 15.9095 128.344 C.ar 0 **** -0.1268
38609 C3 97.508 15.7115 127.746 C.ar 0 **** 0
38610 C4 98.5343 15.0476 128.419 C.ar 0 **** 0
38611 C5 98.2723 14.577 129.71 C.ar 0 **** -0.1268
38612 C6 97.0447 14.7813 130.322 C.ar 0 **** 0
38613 C7 99.6831 15.0125 127.527 C.ar 0 **** 0
38614 C8 99.3184 15.6365 126.347 C.ar 0 **** 0
38615 C9 97.9166 16.1414 126.37 C.3 0 **** -0.106
38616 C10 100.228 15.7318 125.3 C.ar 0 **** 0
38617 C11 101.527 15.1957 125.424 C.ar 0 **** 0
38618 C12 101.849 14.5741 126.662 C.ar 0 **** 0
38619 C13 100.938 14.4899 127.72 C.ar 0 **** 0
38620 C14 101.327 13.8197 129.008 C.3 0 **** -0.106
38621 C15 102.819 14.0023 129.289 C.3 0 **** -0.106
38622 C16 103.578 13.3606 128.159 C.3 0 **** -0.106
38623 C17 103.252 13.9935 126.823 C.ar 0 **** 0
38624 C18 104.171 14.0181 125.823 C.ar 0 **** 0
38625 C19 103.871 14.5835 124.616 C.ar 0 **** 0
38626 C20 102.477 15.2745 124.346 C.ar 0 **** 0
38627 C21 102.055 15.9901 123.155 C.ar 0 **** 0
38628 C22 100.738 16.4596 123.112 C.ar 0 **** 0
38629 C23 99.8477 16.3563 124.124 C.ar 0 **** 0.042
38630 C24 104.909 14.5591 123.504 C.3 0 **** -0.106
38631 C25 106.161 13.6651 123.741 C.ar 0 **** 0
38632 C26 106.422 13.1476 124.986 C.ar 0 **** 0
38633 C27 105.517 13.377 126.152 C.3 0 **** -0.106
38634 C28 107.57 12.3918 125.211 C.ar 0 **** 0.042
38635 C29 108.494 12.144 124.21 C.ar 0 **** 0
38636 C30 108.209 12.6647 122.958 C.ar 0 **** 0
38637 C31 107.065 13.4185 122.71 C.ar 0 **** 0
38638 C32 109.155 12.4504 121.765 C.ar 0 **** 0
38639 C33 110.402 11.6241 122.095 C.3 0 **** -0.106
38640 C34 110.858 11.8012 123.542 C.3 0 **** -0.106
38641 C35 109.737 11.3242 124.462 C.3 0 **** -0.106
38642 C36 106.85 13.9399 121.304 C.ar 0 **** -0.1268
38643 C37 107.766 13.6821 120.333 C.ar 0 **** 0.0265
38644 C38 108.881 12.9678 120.541 C.ar 0 **** -0.1268
38645 C39 100.31 17.1457 121.868 C.3 0 **** -0.106
38646 C40 101.617 17.0768 121.147 C.ar 0 **** 0
38647 C41 102.612 16.4189 121.872 C.ar 0 **** 0
38648 C42 103.879 16.3695 121.255 C.ar 0 **** -0.1268
38649 C43 104.105 16.9087 119.971 C.ar 0 **** 0
38650 C44 103.068 17.5491 119.26 C.ar 0 **** 0
38651 C45 101.808 17.6373 119.874 C.ar 0 **** 0
38652 C46 100.766 18.3031 119.193 C.ar 0 **** -0.1268
38653 C47 100.936 18.8697 117.939 C.ar 0 **** 0
38654 C48 102.185 18.7746 117.354 C.ar 0 **** -0.1268
38655 C49 103.262 18.1271 117.982 C.ar 0 **** 0
38656 C50 104.535 18.0392 117.392 C.ar 0 **** 0.042
38657 C51 105.57 17.4122 118.059 C.ar 0 **** -0.1268
38658 C52 105.37 16.8643 119.323 C.ar 0 **** -0.1268
38659 O53 94.8062 15.6438 130.222 O.3 0 **** -0.452
38660 C54 96.7884 14.2551 131.725 C.3 0 **** -0.159
38661 O55 98.6105 16.8614 123.977 O.3 0 **** -0.452
38662 C56 99.7231 19.5638 117.329 C.3 0 **** -0.106
38663 C57 99.952 19.9996 115.877 C.3 0 **** -0.159
38664 O58 107.537 14.1719 119.103 O.3 0 **** -0.4365
38665 O59 107.856 11.856 126.437 O.3 0 **** -0.452
38666 O60 104.849 18.5424 116.182 O.3 0 **** -0.452
38667 H61 95.4924 16.4431 127.756 H 0 **** 0.1268
38668 H62 99.0001 14.0166 130.312 H 0 **** 0.1268
38669 H63 97.8418 17.2401 126.278 H 0 **** 0.053
38670 H64 97.2626 15.6647 125.617 H 0 **** 0.053
38671 H65 100.795 14.2404 129.857 H 0 **** 0.053
38672 H66 101.106 12.7303 128.965 H 0 **** 0.053
38673 H67 103.066 15.0872 129.39 H 0 **** 0.053
38674 H68 103.094 13.5276 130.277 H 0 **** 0.053
38675 H69 104.649 13.4362 128.381 H 0 **** 0.053
38676 H70 103.332 12.2843 128.134 H 0 **** 0.053
38677 H71 104.413 14.2009 122.578 H 0 **** 0.053
38678 H72 105.304 12.4052 126.609 H 0 **** 0.053
38679 H73 110.177 10.5541 121.909 H 0 **** 0.053
38680 H74 111.189 11.9128 121.385 H 0 **** 0.053
38681 H75 111.771 11.2193 123.72 H 0 **** 0.053
38682 H76 111.103 12.8545 123.74 H 0 **** 0.053
38683 H77 109.514 10.2658 124.27 H 0 **** 0.053
38684 H78 110.039 11.4069 125.5 H 0 **** 0.053
38685 H79 105.955 14.4984 121.109 H 0 **** 0.1268
38686 H80 109.587 12.772 119.75 H 0 **** 0.1268
38687 H81 99.5273 16.6004 121.318 H 0 **** 0.053
38688 H82 100.007 18.1924 122.029 H 0 **** 0.053
38689 H83 104.77 15.9526 121.7 H 0 **** 0.1268
38690 H84 99.7694 18.381 119.666 H 0 **** 0.1268
38691 H85 102.324 19.2223 116.373 H 0 **** 0.1268
38692 H86 106.578 17.3369 117.619 H 0 **** 0.1268
38693 H87 106.23 16.389 119.874 H 0 **** 0.1268
38694 H88 94.252 16.1115 129.611 H 0 **** 0.41
38695 H89 96.1067 14.9165 132.273 H 0 **** 0.053
38696 H90 97.7134 14.1901 132.315 H 0 **** 0.053
38697 H91 96.329 13.2545 131.686 H 0 **** 0.053
38698 H92 98.5134 17.2563 123.122 H 0 **** 0.41
38699 H93 98.8614 18.8889 117.357 H 0 **** 0.053
38700 H94 99.0512 20.4903 115.458 H 0 **** 0.053
38701 H95 100.186 19.1379 115.223 H 0 **** 0.053
38702 H96 100.78 20.7284 115.794 H 0 **** 0.053
38703 H97 106.685 14.5743 119.049 H 0 **** 0.41
38704 H98 107.182 12.0836 127.057 H 0 **** 0.41
38705 H99 104.084 18.9593 115.807 H 0 **** 0.41
38706 H100 105.291 15.5963 123.411 H 0 **** 0.053
38707 H101 106.022 14.0177 126.884 H 0 **** 0.053
38708 H102 99.4653 20.4457 117.926 H 0 **** 0.053
38709 C1 125.55 79.8156 164.508 C.ar 0 **** 0.042
38710 C2 126.693 80.109 165.229 C.ar 0 **** -0.1268
38711 C3 127.159 79.2393 166.201 C.ar 0 **** 0
38712 C4 126.49 78.0467 166.478 C.ar 0 **** 0
38713 C5 125.345 77.7512 165.732 C.ar 0 **** -0.1268
38714 C6 124.863 78.6215 164.765 C.ar 0 **** 0
38715 C7 127.224 77.3769 167.54 C.ar 0 **** 0
38716 C8 128.313 78.1678 167.862 C.ar 0 **** 0
38717 C9 128.378 79.4185 167.055 C.3 0 **** -0.106
38718 C10 129.206 77.7565 168.846 C.ar 0 **** 0
38719 C11 129.017 76.5341 169.524 C.ar 0 **** 0
38720 C12 127.877 75.7676 169.157 C.ar 0 **** 0
38721 C13 126.971 76.1878 168.177 C.ar 0 **** 0
38722 C14 125.783 75.3378 167.825 C.3 0 **** -0.106
38723 C15 125.291 74.5566 169.044 C.3 0 **** -0.106
38724 C16 126.412 73.6594 169.493 C.3 0 **** -0.106
38725 C17 127.647 74.4436 169.884 C.ar 0 **** 0
38726 C18 128.505 73.9675 170.822 C.ar 0 **** 0
38727 C19 129.623 74.6747 171.166 C.ar 0 **** 0
38728 C20 129.938 76.0873 170.534 C.ar 0 **** 0
38729 C21 131.029 76.9861 170.867 C.ar 0 **** 0
38730 C22 131.153 78.1618 170.119 C.ar 0 **** 0
38731 C23 130.294 78.5571 169.154 C.ar 0 **** 0.042
38732 C24 130.584 74.0943 172.193 C.3 0 **** -0.106
38733 C25 130.354 72.6099 172.601 C.ar 0 **** 0
38734 C26 129.196 71.9624 172.246 C.ar 0 **** 0
38735 C27 128.129 72.6201 171.433 C.3 0 **** -0.106
38736 C28 128.966 70.6509 172.657 C.ar 0 **** 0.042
38737 C29 129.871 69.9567 173.44 C.ar 0 **** 0
38738 C30 131.039 70.6226 173.779 C.ar 0 **** 0
38739 C31 131.291 71.9312 173.375 C.ar 0 **** 0
38740 C32 132.124 69.954 174.638 C.ar 0 **** 0
38741 C33 131.791 68.5203 175.063 C.3 0 **** -0.106
38742 C34 130.291 68.2895 175.228 C.3 0 **** -0.106
38743 C35 129.615 68.5357 173.881 C.3 0 **** -0.106
38744 C36 132.601 72.5639 173.801 C.ar 0 **** -0.1268
38745 C37 133.48 71.8649 174.566 C.ar 0 **** 0.0265
38746 C38 133.263 70.6081 174.978 C.ar 0 **** -0.1268
38747 C39 132.302 79.0441 170.441 C.3 0 **** -0.106
38748 C40 132.856 78.2407 171.573 C.ar 0 **** 0
38749 C41 132.138 77.0683 171.818 C.ar 0 **** 0
38750 C42 132.593 76.2975 172.908 C.ar 0 **** -0.1268
38751 C43 133.724 76.6687 173.664 C.ar 0 **** 0
38752 C44 134.435 77.852 173.373 C.ar 0 **** 0
38753 C45 133.977 78.6491 172.312 C.ar 0 **** 0
38754 C46 134.655 79.8538 172.025 C.ar 0 **** -0.1268
38755 C47 135.76 80.2787 172.748 C.ar 0 **** 0
38756 C48 136.193 79.4808 173.79 C.ar 0 **** -0.1268
38757 C49 135.559 78.2729 174.126 C.ar 0 **** 0
38758 C50 135.991 77.4659 175.193 C.ar 0 **** 0.042
38759 C51 135.321 76.2978 175.499 C.ar 0 **** -0.1268
38760 C52 134.207 75.9047 174.762 C.ar 0 **** -0.1268
38761 O53 125.083 80.679 163.546 O.3 0 **** -0.452
38762 C54 123.616 78.2702 163.967 C.3 0 **** -0.159
38763 O55 130.504 79.7187 168.51 O.3 0 **** -0.452
38764 C56 136.386 81.6049 172.329 C.3 0 **** -0.106
38765 C57 137.699 81.9035 173.062 C.3 0 **** -0.159
38766 O58 134.624 72.4699 174.924 O.3 0 **** -0.4365
38767 O59 127.827 69.9745 172.314 O.3 0 **** -0.452
38768 O60 137.046 77.7506 175.982 O.3 0 **** -0.452
38769 H61 127.273 81.0433 165.049 H 0 **** 0.1268
38770 H62 124.765 76.8257 165.85 H 0 **** 0.1268
38771 H63 128.285 80.3385 167.66 H 0 **** 0.053
38772 H64 129.278 79.4873 166.417 H 0 **** 0.053
38773 H65 124.946 75.9397 167.482 H 0 **** 0.053
38774 H66 126.043 74.6133 167.022 H 0 **** 0.053
38775 H67 124.971 75.2576 169.854 H 0 **** 0.053
38776 H68 124.375 73.9506 168.779 H 0 **** 0.053
38777 H69 126.049 73.0522 170.332 H 0 **** 0.053
38778 H70 126.656 72.9596 168.675 H 0 **** 0.053
38779 H71 131.613 74.1726 171.783 H 0 **** 0.053
38780 H72 127.88 71.9516 170.603 H 0 **** 0.053
38781 H73 132.189 67.8228 174.298 H 0 **** 0.053
38782 H74 132.336 68.3147 175.995 H 0 **** 0.053
38783 H75 130.105 67.2624 175.566 H 0 **** 0.053
38784 H76 129.882 68.9608 175.997 H 0 **** 0.053
38785 H77 130.015 67.8467 173.126 H 0 **** 0.053
38786 H78 128.549 68.3509 173.954 H 0 **** 0.053
38787 H79 132.805 73.5632 173.467 H 0 **** 0.1268
38788 H80 133.982 70.0742 175.579 H 0 **** 0.1268
38789 H81 133.032 79.1246 169.621 H 0 **** 0.053
38790 H82 131.999 80.0464 170.784 H 0 **** 0.053
38791 H83 132.12 75.3965 173.271 H 0 **** 0.1268
38792 H84 134.304 80.4913 171.193 H 0 **** 0.1268
38793 H85 137.055 79.8129 174.362 H 0 **** 0.1268
38794 H86 135.638 75.6528 176.335 H 0 **** 0.1268
38795 H87 133.645 74.9699 175.045 H 0 **** 0.1268
38796 H88 125.684 81.4088 163.491 H 0 **** 0.41
38797 H89 123.05 79.1723 163.707 H 0 **** 0.053
38798 H90 122.938 77.6175 164.533 H 0 **** 0.053
38799 H91 123.887 77.7609 163.028 H 0 **** 0.053
38800 H92 131.282 80.1435 168.844 H 0 **** 0.41
38801 H93 136.584 81.5938 171.253 H 0 **** 0.053
38802 H94 138.134 82.8665 172.729 H 0 **** 0.053
38803 H95 138.459 81.1219 172.873 H 0 **** 0.053
38804 H96 137.549 81.9812 174.155 H 0 **** 0.053
38805 H97 134.711 73.3121 174.507 H 0 **** 0.41
38806 H98 127.265 70.5258 171.794 H 0 **** 0.41
38807 H99 137.435 78.5697 175.703 H 0 **** 0.41
38808 H100 130.447 74.688 173.119 H 0 **** 0.053
38809 H101 127.24 72.7719 172.055 H 0 **** 0.053
38810 H102 135.68 82.421 172.522 H 0 **** 0.053
38811 C1 114.009 71.2973 171.889 C.ar 0 **** 0.042
38812 C2 113.095 71.5833 170.891 C.ar 0 **** -0.1268
38813 C3 113.497 72.2083 169.722 C.ar 0 **** 0
38814 C4 114.831 72.5663 169.52 C.ar 0 **** 0
38815 C5 115.749 72.2597 170.528 C.ar 0 **** -0.1268
38816 C6 115.355 71.6452 171.708 C.ar 0 **** 0
38817 C7 114.914 73.2003 168.213 C.ar 0 **** 0
38818 C8 113.645 73.1948 167.662 C.ar 0 **** 0
38819 C9 112.628 72.5747 168.558 C.3 0 **** -0.106
38820 C10 113.434 73.7288 166.395 C.ar 0 **** 0
38821 C11 114.503 74.2787 165.658 C.ar 0 **** 0
38822 C12 115.783 74.2652 166.279 C.ar 0 **** 0
38823 C13 115.993 73.7398 167.558 C.ar 0 **** 0
38824 C14 117.367 73.747 168.167 C.3 0 **** -0.106
38825 C15 118.169 74.9584 167.691 C.3 0 **** -0.106
38826 C16 118.302 74.8595 166.196 C.3 0 **** -0.106
38827 C17 116.956 74.8632 165.504 C.ar 0 **** 0
38828 C18 116.822 75.3604 164.247 C.ar 0 **** 0
38829 C19 115.607 75.3541 163.622 C.ar 0 **** 0
38830 C20 114.305 74.8231 164.342 C.ar 0 **** 0
38831 C21 112.942 74.8399 163.84 C.ar 0 **** 0
38832 C22 111.953 74.2439 164.629 C.ar 0 **** 0
38833 C23 112.158 73.713 165.855 C.ar 0 **** 0.042
38834 C24 115.499 75.8827 162.199 C.3 0 **** -0.106
38835 C25 116.838 76.1673 161.459 C.ar 0 **** 0
38836 C26 118.025 76.1847 162.15 C.ar 0 **** 0
38837 C27 118.101 75.9008 163.615 C.3 0 **** -0.106
38838 C28 119.218 76.4911 161.498 C.ar 0 **** 0.042
38839 C29 119.259 76.8024 160.15 C.ar 0 **** 0
38840 C30 118.053 76.7686 159.467 C.ar 0 **** 0
38841 C31 116.851 76.4595 160.098 C.ar 0 **** 0
38842 C32 117.971 77.0872 157.965 C.ar 0 **** 0
38843 C33 119.32 77.4304 157.324 C.3 0 **** -0.106
38844 C34 120.282 78.1026 158.302 C.3 0 **** -0.106
38845 C35 120.555 77.1345 159.451 C.3 0 **** -0.106
38846 C36 115.591 76.4511 159.256 C.ar 0 **** -0.1268
38847 C37 115.651 76.7538 157.932 C.ar 0 **** 0.0265
38848 C38 116.791 77.0638 157.298 C.ar 0 **** -0.1268
38849 C39 110.575 74.2279 164.079 C.3 0 **** -0.106
38850 C40 110.858 74.975 162.817 C.ar 0 **** 0
38851 C41 112.203 75.3233 162.674 C.ar 0 **** 0
38852 C42 112.514 76.073 161.521 C.ar 0 **** -0.1268
38853 C43 111.537 76.4033 160.559 C.ar 0 **** 0
38854 C44 110.191 76.0157 160.729 C.ar 0 **** 0
38855 C45 109.856 75.2977 161.888 C.ar 0 **** 0
38856 C46 108.509 74.9289 162.093 C.ar 0 **** -0.1268
38857 C47 107.503 75.2443 161.192 C.ar 0 **** 0
38858 C48 107.854 75.9546 160.059 C.ar 0 **** -0.1268
38859 C49 109.176 76.3518 159.8 C.ar 0 **** 0
38860 C50 109.533 77.0837 158.653 C.ar 0 **** 0.042
38861 C51 110.843 77.4715 158.454 C.ar 0 **** -0.1268
38862 C52 111.828 77.1506 159.384 C.ar 0 **** -0.1268
38863 O53 113.615 70.6771 173.05 O.3 0 **** -0.452
38864 C54 116.379 71.3217 172.785 C.3 0 **** -0.159
38865 O55 111.126 73.1814 166.533 O.3 0 **** -0.452
38866 C56 106.093 74.788 161.549 C.3 0 **** -0.106
38867 C57 105.085 75.0213 160.418 C.3 0 **** -0.159
38868 O58 114.507 76.7413 157.229 O.3 0 **** -0.4365
38869 O59 120.418 76.5083 162.154 O.3 0 **** -0.452
38870 O60 108.665 77.4613 157.693 O.3 0 **** -0.452
38871 H61 112.018 71.3175 170.995 H 0 **** 0.1268
38872 H62 116.825 72.4708 170.455 H 0 **** 0.1268
38873 H63 111.837 73.2763 168.88 H 0 **** 0.053
38874 H64 112.162 71.6657 168.135 H 0 **** 0.053
38875 H65 117.326 73.806 169.251 H 0 **** 0.053
38876 H66 117.923 72.8239 167.891 H 0 **** 0.053
38877 H67 117.661 75.9038 168.002 H 0 **** 0.053
38878 H68 119.185 74.9704 168.185 H 0 **** 0.053
38879 H69 118.926 75.6931 165.851 H 0 **** 0.053
38880 H70 118.847 73.9308 165.95 H 0 **** 0.053
38881 H71 114.936 75.1387 161.597 H 0 **** 0.053
38882 H72 118.878 75.1456 163.77 H 0 **** 0.053
38883 H73 119.778 76.4958 156.942 H 0 **** 0.053
38884 H74 119.121 78.0681 156.452 H 0 **** 0.053
38885 H75 121.217 78.3596 157.79 H 0 **** 0.053
38886 H76 119.851 79.0416 158.679 H 0 **** 0.053
38887 H77 121.004 76.2084 159.066 H 0 **** 0.053
38888 H78 121.26 77.568 160.151 H 0 **** 0.053
38889 H79 114.669 76.1871 159.738 H 0 **** 0.1268
38890 H80 116.811 77.2926 156.244 H 0 **** 0.1268
38891 H81 110.205 73.2134 163.862 H 0 **** 0.053
38892 H82 109.85 74.7744 164.703 H 0 **** 0.053
38893 H83 113.49 76.4733 161.286 H 0 **** 0.1268
38894 H84 108.232 74.3648 163.002 H 0 **** 0.1268
38895 H85 107.068 76.2084 159.352 H 0 **** 0.1268
38896 H86 111.144 78.051 157.566 H 0 **** 0.1268
38897 H87 112.886 77.5048 159.231 H 0 **** 0.1268
38898 H88 112.683 70.511 172.994 H 0 **** 0.41
38899 H89 115.934 71.3966 173.783 H 0 **** 0.053
38900 H90 117.232 72.0144 172.762 H 0 **** 0.053
38901 H91 116.761 70.2954 172.661 H 0 **** 0.053
38902 H92 110.327 73.2527 166.029 H 0 **** 0.41
38903 H93 106.103 73.7201 161.791 H 0 **** 0.053
38904 H94 104.074 74.6704 160.703 H 0 **** 0.053
38905 H95 105.37 74.4769 159.497 H 0 **** 0.053
38906 H96 104.992 76.0947 160.168 H 0 **** 0.053
38907 H97 113.789 76.4205 157.752 H 0 **** 0.41
38908 H98 120.295 76.3039 163.067 H 0 **** 0.41
38909 H99 107.795 77.1602 157.92 H 0 **** 0.41
38910 H100 114.977 76.8592 162.268 H 0 **** 0.053
38911 H101 118.376 76.8179 164.149 H 0 **** 0.053
38912 H102 105.75 75.3205 162.444 H 0 **** 0.053
38913 C1 125.222 38.9779 179.385 C.ar 0 **** 0.042
38914 C2 126.132 37.9413 179.472 C.ar 0 **** -0.1268
38915 C3 126.422 37.1599 178.365 C.ar 0 **** 0
38916 C4 125.803 37.3968 177.137 C.ar 0 **** 0
38917 C5 124.894 38.4561 177.056 C.ar 0 **** -0.1268
38918 C6 124.588 39.2361 178.161 C.ar 0 **** 0
38919 C7 126.316 36.4105 176.198 C.ar 0 **** 0
38920 C8 127.231 35.6227 176.875 C.ar 0 **** 0
38921 C9 127.385 36.0134 178.305 C.3 0 **** -0.106
38922 C10 127.895 34.5988 176.208 C.ar 0 **** 0
38923 C11 127.65 34.352 174.841 C.ar 0 **** 0
38924 C12 126.694 35.187 174.201 C.ar 0 **** 0
38925 C13 126.015 36.2082 174.875 C.ar 0 **** 0
38926 C14 125.015 37.0643 174.15 C.3 0 **** -0.106
38927 C15 124.312 36.2697 173.049 C.3 0 **** -0.106
38928 C16 125.362 35.8182 172.071 C.3 0 **** -0.106
38929 C17 126.404 34.9325 172.722 C.ar 0 **** 0
38930 C18 127.049 33.9766 172.006 C.ar 0 **** 0
38931 C19 127.994 33.1846 172.596 C.ar 0 **** 0
38932 C20 128.338 33.3057 174.133 C.ar 0 **** 0
38933 C21 129.243 32.4775 174.909 C.ar 0 **** 0
38934 C22 129.446 32.8186 176.251 C.ar 0 **** 0
38935 C23 128.81 33.8198 176.898 C.ar 0 **** 0.042
38936 C24 128.728 32.1496 171.756 C.3 0 **** -0.106
38937 C25 128.525 32.2342 170.214 C.ar 0 **** 0
38938 C26 127.54 33.0304 169.685 C.ar 0 **** 0
38939 C27 126.648 33.8722 170.537 C.3 0 **** -0.106
38940 C28 127.324 33.066 168.309 C.ar 0 **** 0.042
38941 C29 128.07 32.302 167.428 C.ar 0 **** 0
38942 C30 129.067 31.5129 167.98 C.ar 0 **** 0
38943 C31 129.303 31.4666 169.352 C.ar 0 **** 0
38944 C32 129.967 30.6266 167.103 C.ar 0 **** 0
38945 C33 129.659 30.7129 165.606 C.3 0 **** -0.106
38946 C34 128.185 30.9941 165.324 C.3 0 **** -0.106
38947 C35 127.829 32.3463 165.938 C.3 0 **** -0.106
38948 C36 130.42 30.5706 169.848 C.ar 0 **** -0.1268
38949 C37 131.145 29.8316 168.967 C.ar 0 **** 0.0265
38950 C38 130.937 29.8474 167.643 C.ar 0 **** -0.1268
38951 C39 130.412 31.9909 177.015 C.3 0 **** -0.106
38952 C40 130.744 31.0227 175.927 C.ar 0 **** 0
38953 C41 130.085 31.2954 174.727 C.ar 0 **** 0
38954 C42 130.328 30.3804 173.682 C.ar 0 **** -0.1268
38955 C43 131.215 29.2938 173.832 C.ar 0 **** 0
38956 C44 131.879 29.0628 175.055 C.ar 0 **** 0
38957 C45 131.623 29.9444 176.117 C.ar 0 **** 0
38958 C46 132.249 29.7111 177.361 C.ar 0 **** -0.1268
38959 C47 133.11 28.6457 177.574 C.ar 0 **** 0
38960 C48 133.35 27.7899 176.515 C.ar 0 **** -0.1268
38961 C49 132.755 27.9682 175.254 C.ar 0 **** 0
38962 C50 132.985 27.0902 174.18 C.ar 0 **** 0.042
38963 C51 132.356 27.2929 172.967 C.ar 0 **** -0.1268
38964 C52 131.483 28.3626 172.791 C.ar 0 **** -0.1268
38965 O53 124.933 39.7568 180.48 O.3 0 **** -0.452
38966 C54 123.597 40.3838 178.042 C.3 0 **** -0.159
38967 O55 129.068 34.0429 178.198 O.3 0 **** -0.452
38968 C56 133.7 28.5137 178.974 C.3 0 **** -0.106
38969 C57 134.757 27.4151 179.063 C.3 0 **** -0.159
38970 O58 132.121 29.0474 169.455 O.3 0 **** -0.4365
38971 O59 126.356 33.854 167.748 O.3 0 **** -0.452
38972 O60 133.796 26.0154 174.238 O.3 0 **** -0.452
38973 H61 126.66 37.7081 180.425 H 0 **** 0.1268
38974 H62 124.378 38.7452 176.131 H 0 **** 0.1268
38975 H63 127.079 35.2229 179.013 H 0 **** 0.053
38976 H64 128.402 36.362 178.561 H 0 **** 0.053
38977 H65 124.238 37.4275 174.817 H 0 **** 0.053
38978 H66 125.514 37.9439 173.687 H 0 **** 0.053
38979 H67 123.755 35.4056 173.487 H 0 **** 0.053
38980 H68 123.536 36.9111 172.536 H 0 **** 0.053
38981 H69 124.86 35.2964 171.247 H 0 **** 0.053
38982 H70 125.848 36.7093 171.636 H 0 **** 0.053
38983 H71 129.815 32.2517 171.956 H 0 **** 0.053
38984 H72 126.656 34.8886 170.131 H 0 **** 0.053
38985 H73 130.279 31.5168 165.161 H 0 **** 0.053
38986 H74 129.984 29.7716 165.145 H 0 **** 0.053
38987 H75 128.006 31.0081 164.242 H 0 **** 0.053
38988 H76 127.553 30.1989 165.746 H 0 **** 0.053
38989 H77 128.451 33.1372 165.497 H 0 **** 0.053
38990 H78 126.795 32.5962 165.731 H 0 **** 0.053
38991 H79 130.619 30.5569 170.902 H 0 **** 0.1268
38992 H80 131.534 29.2568 166.966 H 0 **** 0.1268
38993 H81 131.307 32.5486 177.333 H 0 **** 0.053
38994 H82 129.958 31.4733 177.875 H 0 **** 0.053
38995 H83 129.857 30.4088 172.71 H 0 **** 0.1268
38996 H84 132.057 30.3976 178.206 H 0 **** 0.1268
38997 H85 134.023 26.9529 176.677 H 0 **** 0.1268
38998 H86 132.517 26.6153 172.112 H 0 **** 0.1268
38999 H87 130.947 28.4975 171.808 H 0 **** 0.1268
39000 H88 125.449 39.4432 181.21 H 0 **** 0.41
39001 H89 123.039 40.5176 178.976 H 0 **** 0.053
39002 H90 122.857 40.2068 177.249 H 0 **** 0.053
39003 H91 124.122 41.3276 177.824 H 0 **** 0.053
39004 H92 129.723 33.4348 178.513 H 0 **** 0.41
39005 H93 134.163 29.4638 179.266 H 0 **** 0.053
39006 H94 135.205 27.3632 180.074 H 0 **** 0.053
39007 H95 135.568 27.6136 178.348 H 0 **** 0.053
39008 H96 134.348 26.4167 178.834 H 0 **** 0.053
39009 H97 132.239 29.1859 170.381 H 0 **** 0.41
39010 H98 125.891 34.3265 168.419 H 0 **** 0.41
39011 H99 134.169 25.9548 175.107 H 0 **** 0.41
39012 H100 128.328 31.1605 172.059 H 0 **** 0.053
39013 H101 125.627 33.4751 170.498 H 0 **** 0.053
39014 H102 132.903 28.3009 179.696 H 0 **** 0.053
39015 C1 133.847 27.3626 146.594 C.ar 0 **** 0.042
39016 C2 133.082 26.4082 147.238 C.ar 0 **** -0.1268
39017 C3 133.135 25.0795 146.85 C.ar 0 **** 0
39018 C4 133.959 24.6701 145.801 C.ar 0 **** 0
39019 C5 134.739 25.6408 145.165 C.ar 0 **** -0.1268
39020 C6 134.683 26.9755 145.538 C.ar 0 **** 0
39021 C7 133.779 23.2348 145.646 C.ar 0 **** 0
39022 C8 132.872 22.8189 146.605 C.ar 0 **** 0
39023 C9 132.374 23.9383 147.453 C.3 0 **** -0.106
39024 C10 132.523 21.4759 146.697 C.ar 0 **** 0
39025 C11 133.087 20.5239 145.822 C.ar 0 **** 0
39026 C12 134.006 21.01 144.853 C.ar 0 **** 0
39027 C13 134.347 22.3634 144.75 C.ar 0 **** 0
39028 C14 135.326 22.8251 143.708 C.3 0 **** -0.106
39029 C15 135.236 21.9571 142.452 C.3 0 **** -0.106
39030 C16 135.578 20.5463 142.848 C.3 0 **** -0.106
39031 C17 134.623 19.999 143.888 C.ar 0 **** 0
39032 C18 134.356 18.6695 143.955 C.ar 0 **** 0
39033 C19 133.499 18.1788 144.899 C.ar 0 **** 0
39034 C20 132.747 19.129 145.913 C.ar 0 **** 0
39035 C21 131.747 18.7629 146.9 C.ar 0 **** 0
39036 C22 131.268 19.771 147.744 C.ar 0 **** 0
39037 C23 131.616 21.0743 147.664 C.ar 0 **** 0.042
39038 C24 133.251 16.6792 144.972 C.3 0 **** -0.106
39039 C25 134.19 15.7766 144.119 C.ar 0 **** 0
39040 C26 135.009 16.3292 143.166 C.ar 0 **** 0
39041 C27 135.073 17.802 142.924 C.3 0 **** -0.106
39042 C28 135.809 15.5169 142.365 C.ar 0 **** 0.042
39043 C29 135.806 14.1377 142.483 C.ar 0 **** 0
39044 C30 134.982 13.5988 143.458 C.ar 0 **** 0
39045 C31 134.177 14.3926 144.271 C.ar 0 **** 0
39046 C32 134.896 12.0811 143.688 C.ar 0 **** 0
39047 C33 135.793 11.2556 142.759 C.3 0 **** -0.106
39048 C34 135.993 11.9155 141.396 C.3 0 **** -0.106
39049 C35 136.677 13.264 141.611 C.3 0 **** -0.106
39050 C36 133.313 13.6994 145.305 C.ar 0 **** -0.1268
39051 C37 133.326 12.3444 145.409 C.ar 0 **** 0.0265
39052 C38 134.082 11.5526 144.635 C.ar 0 **** -0.1268
39053 C39 130.284 19.3688 148.778 C.3 0 **** -0.106
39054 C40 130.181 17.9265 148.402 C.ar 0 **** 0
39055 C41 131.012 17.5757 147.337 C.ar 0 **** 0
39056 C42 130.917 16.2345 146.911 C.ar 0 **** -0.1268
39057 C43 130.071 15.306 147.553 C.ar 0 **** 0
39058 C44 129.26 15.6941 148.641 C.ar 0 **** 0
39059 C45 129.318 17.0338 149.057 C.ar 0 **** 0
39060 C46 128.489 17.4505 150.122 C.ar 0 **** -0.1268
39061 C47 127.625 16.5868 150.777 C.ar 0 **** 0
39062 C48 127.581 15.2725 150.349 C.ar 0 **** -0.1268
39063 C49 128.379 14.7988 149.294 C.ar 0 **** 0
39064 C50 128.329 13.465 148.852 C.ar 0 **** 0.042
39065 C51 129.115 13.0519 147.794 C.ar 0 **** -0.1268
39066 C52 129.963 13.9469 147.148 C.ar 0 **** -0.1268
39067 O53 133.798 28.6818 146.977 O.3 0 **** -0.452
39068 C54 135.546 28.0084 144.829 C.3 0 **** -0.159
39069 O55 131.077 21.9615 148.518 O.3 0 **** -0.452
39070 C56 126.785 17.179 151.903 C.3 0 **** -0.106
39071 C57 125.997 16.1193 152.681 C.3 0 **** -0.159
39072 O58 132.539 11.775 146.337 O.3 0 **** -0.4365
39073 O59 136.637 16.0352 141.407 O.3 0 **** -0.452
39074 O60 127.54 12.5149 149.391 O.3 0 **** -0.452
39075 H61 132.408 26.6751 148.085 H 0 **** 0.1268
39076 H62 135.442 25.4188 144.351 H 0 **** 0.1268
39077 H63 131.287 24.1147 147.358 H 0 **** 0.053
39078 H64 132.636 23.8339 148.522 H 0 **** 0.053
39079 H65 135.128 23.8468 143.396 H 0 **** 0.053
39080 H66 136.366 22.7757 144.098 H 0 **** 0.053
39081 H67 134.215 22.0255 142.003 H 0 **** 0.053
39082 H68 135.949 22.3353 141.662 H 0 **** 0.053
39083 H69 135.573 19.9269 141.943 H 0 **** 0.053
39084 H70 136.61 20.5284 143.241 H 0 **** 0.053
39085 H71 133.356 16.3645 146.032 H 0 **** 0.053
39086 H72 136.127 18.0986 142.935 H 0 **** 0.053
39087 H73 136.778 11.1177 143.249 H 0 **** 0.053
39088 H74 135.34 10.2593 142.661 H 0 **** 0.053
39089 H75 136.61 11.2741 140.755 H 0 **** 0.053
39090 H76 135.027 12.0468 140.887 H 0 **** 0.053
39091 H77 137.65 13.1231 142.102 H 0 **** 0.053
39092 H78 136.863 13.7496 140.659 H 0 **** 0.053
39093 H79 132.712 14.3147 145.947 H 0 **** 0.1268
39094 H80 134.076 10.4794 144.742 H 0 **** 0.1268
39095 H81 130.663 19.4821 149.806 H 0 **** 0.053
39096 H82 129.31 19.8722 148.672 H 0 **** 0.053
39097 H83 131.442 15.8134 146.066 H 0 **** 0.1268
39098 H84 128.524 18.5037 150.457 H 0 **** 0.1268
39099 H85 126.901 14.5933 150.856 H 0 **** 0.1268
39100 H86 129.086 12.0137 147.424 H 0 **** 0.1268
39101 H87 130.571 13.6094 146.262 H 0 **** 0.1268
39102 H88 133.188 28.7562 147.698 H 0 **** 0.41
39103 H89 135.038 28.979 144.786 H 0 **** 0.053
39104 H90 135.769 27.7168 143.794 H 0 **** 0.053
39105 H91 136.499 28.1494 145.364 H 0 **** 0.053
39106 H92 130.476 21.5313 149.11 H 0 **** 0.41
39107 H93 127.436 17.7125 152.604 H 0 **** 0.053
39108 H94 125.407 16.5779 153.499 H 0 **** 0.053
39109 H95 126.667 15.3703 153.146 H 0 **** 0.053
39110 H96 125.28 15.5832 152.032 H 0 **** 0.053
39111 H97 132.119 12.4284 146.872 H 0 **** 0.41
39112 H98 136.577 16.9767 141.398 H 0 **** 0.41
39113 H99 127.026 12.8926 150.093 H 0 **** 0.41
39114 H100 132.228 16.5126 144.576 H 0 **** 0.053
39115 H101 134.645 18.028 141.941 H 0 **** 0.053
39116 H102 126.082 17.9116 151.491 H 0 **** 0.053
39117 C1 141.625 32.1215 191.888 C.ar 0 **** 0.042
39118 C2 141.323 31.3211 190.802 C.ar 0 **** -0.1268
39119 C3 141.035 31.882 189.568 C.ar 0 **** 0
39120 C4 141.041 33.2662 189.39 C.ar 0 **** 0
39121 C5 141.36 34.0662 190.491 C.ar 0 **** -0.1268
39122 C6 141.637 33.5147 191.733 C.ar 0 **** 0
39123 C7 140.696 33.523 188 C.ar 0 **** 0
39124 C8 140.508 32.2999 187.38 C.ar 0 **** 0
39125 C9 140.698 31.1481 188.306 C.3 0 **** -0.106
39126 C10 140.183 32.2466 186.029 C.ar 0 **** 0
39127 C11 140.042 33.4304 185.275 C.ar 0 **** 0
39128 C12 140.238 34.6574 185.966 C.ar 0 **** 0
39129 C13 140.552 34.7118 187.329 C.ar 0 **** 0
39130 C14 140.751 36.036 188.011 C.3 0 **** -0.106
39131 C15 139.868 37.1132 187.381 C.3 0 **** -0.106
39132 C16 140.271 37.2464 185.938 C.3 0 **** -0.106
39133 C17 140.083 35.9534 185.172 C.ar 0 **** 0
39134 C18 139.808 35.9661 183.843 C.ar 0 **** 0
39135 C19 139.647 34.7967 183.154 C.ar 0 **** 0
39136 C20 139.719 33.3929 183.874 C.ar 0 **** 0
39137 C21 139.478 32.0835 183.294 C.ar 0 **** 0
39138 C22 139.672 30.9655 184.113 C.ar 0 **** 0
39139 C23 140.001 31.0147 185.422 C.ar 0 **** 0.042
39140 C24 139.379 34.8451 181.657 C.3 0 **** -0.106
39141 C25 139.555 36.2274 180.963 C.ar 0 **** 0
39142 C26 139.686 37.3705 181.713 C.ar 0 **** 0
39143 C27 139.705 37.3493 183.206 C.3 0 **** -0.106
39144 C28 139.79 38.6138 181.093 C.ar 0 **** 0.042
39145 C29 139.752 38.7534 179.716 C.ar 0 **** 0
39146 C30 139.63 37.5875 178.976 C.ar 0 **** 0
39147 C31 139.53 36.3347 179.576 C.ar 0 **** 0
39148 C32 139.584 37.6128 177.44 C.ar 0 **** 0
39149 C33 139.688 39.016 176.833 C.3 0 **** -0.106
39150 C34 139.089 40.0923 177.736 C.3 0 **** -0.106
39151 C35 139.864 40.1044 179.051 C.3 0 **** -0.106
39152 C36 139.401 35.1253 178.672 C.ar 0 **** -0.1268
39153 C37 139.371 35.2813 177.322 C.ar 0 **** 0.0265
39154 C38 139.456 36.4735 176.715 C.ar 0 **** -0.1268
39155 C39 139.468 29.6345 183.49 C.3 0 **** -0.106
39156 C40 139.053 30.1129 182.137 C.ar 0 **** 0
39157 C41 139.06 31.504 182.018 C.ar 0 **** 0
39158 C42 138.628 32.0077 180.773 C.ar 0 **** -0.1268
39159 C43 138.265 31.1564 179.71 C.ar 0 **** 0
39160 C44 138.298 29.7541 179.86 C.ar 0 **** 0
39161 C45 138.685 29.2348 181.106 C.ar 0 **** 0
39162 C46 138.686 27.8347 181.291 C.ar 0 **** -0.1268
39163 C47 138.331 26.9502 180.285 C.ar 0 **** 0
39164 C48 137.973 27.4817 179.061 C.ar 0 **** -0.1268
39165 C49 137.931 28.8663 178.82 C.ar 0 **** 0
39166 C50 137.513 29.4095 177.591 C.ar 0 **** 0.042
39167 C51 137.472 30.7774 177.411 C.ar 0 **** -0.1268
39168 C52 137.834 31.639 178.443 C.ar 0 **** -0.1268
39169 O53 141.913 31.5709 193.113 O.3 0 **** -0.452
39170 C54 141.984 34.4109 192.912 C.3 0 **** -0.159
39171 O55 140.145 29.8727 186.117 O.3 0 **** -0.452
39172 C56 138.362 25.4652 180.628 C.3 0 **** -0.106
39173 C57 138.111 24.5648 179.413 C.3 0 **** -0.159
39174 O58 139.248 34.1806 176.562 O.3 0 **** -0.4365
39175 O59 139.929 39.7711 181.809 O.3 0 **** -0.452
39176 O60 137.126 28.6762 176.528 O.3 0 **** -0.452
39177 H61 141.305 30.2103 190.884 H 0 **** 0.1268
39178 H62 141.421 35.1622 190.449 H 0 **** 0.1268
39179 H63 139.784 30.5434 188.451 H 0 **** 0.053
39180 H64 141.536 30.4851 188.021 H 0 **** 0.053
39181 H65 140.485 35.9896 189.063 H 0 **** 0.053
39182 H66 141.812 36.3603 187.935 H 0 **** 0.053
39183 H67 138.789 36.8439 187.487 H 0 **** 0.053
39184 H68 139.997 38.0952 187.925 H 0 **** 0.053
39185 H69 139.682 38.0576 185.492 H 0 **** 0.053
39186 H70 141.329 37.5582 185.892 H 0 **** 0.053
39187 H71 140.07 34.1315 181.161 H 0 **** 0.053
39188 H72 140.578 37.9201 183.539 H 0 **** 0.053
39189 H73 140.757 39.2443 176.649 H 0 **** 0.053
39190 H74 139.194 38.9918 175.852 H 0 **** 0.053
39191 H75 139.155 41.0715 177.246 H 0 **** 0.053
39192 H76 138.022 39.8927 177.915 H 0 **** 0.053
39193 H77 140.924 40.3251 178.863 H 0 **** 0.053
39194 H78 139.485 40.8798 179.707 H 0 **** 0.053
39195 H79 139.35 34.1587 179.135 H 0 **** 0.1268
39196 H80 139.436 36.5679 175.641 H 0 **** 0.1268
39197 H81 140.391 29.0364 183.431 H 0 **** 0.053
39198 H82 138.663 29.05 183.963 H 0 **** 0.053
39199 H83 138.516 33.0545 180.533 H 0 **** 0.1268
39200 H84 138.988 27.4141 182.267 H 0 **** 0.1268
39201 H85 137.679 26.79 178.275 H 0 **** 0.1268
39202 H86 137.149 31.2242 176.457 H 0 **** 0.1268
39203 H87 137.769 32.7539 178.295 H 0 **** 0.1268
39204 H88 141.853 30.6283 193.039 H 0 **** 0.41
39205 H89 141.625 33.9773 193.852 H 0 **** 0.053
39206 H90 141.525 35.4051 192.821 H 0 **** 0.053
39207 H91 143.075 34.5373 192.994 H 0 **** 0.053
39208 H92 139.981 29.1239 185.561 H 0 **** 0.41
39209 H93 139.338 25.2105 181.054 H 0 **** 0.053
39210 H94 138.158 23.4933 179.692 H 0 **** 0.053
39211 H95 138.868 24.7263 178.621 H 0 **** 0.053
39212 H96 137.111 24.7372 178.975 H 0 **** 0.053
39213 H97 139.287 33.3972 177.087 H 0 **** 0.41
39214 H98 139.934 39.5842 182.734 H 0 **** 0.41
39215 H99 137.186 27.7555 176.745 H 0 **** 0.41
39216 H100 138.312 34.5722 181.522 H 0 **** 0.053
39217 H101 138.795 37.8258 183.588 H 0 **** 0.053
39218 H102 137.607 25.2465 181.391 H 0 **** 0.053
39219 C1 157.875 36.8898 118.9 C.ar 0 **** 0.042
39220 C2 158.368 36.081 117.893 C.ar 0 **** -0.1268
39221 C3 159.665 35.5986 117.945 C.ar 0 **** 0
39222 C4 160.507 35.9159 119.011 C.ar 0 **** 0
39223 C5 159.994 36.723 120.031 C.ar 0 **** -0.1268
39224 C6 158.701 37.2212 119.982 C.ar 0 **** 0
39225 C7 161.784 35.2645 118.761 C.ar 0 **** 0
39226 C8 161.674 34.5677 117.571 C.ar 0 **** 0
39227 C9 160.333 34.7126 116.938 C.3 0 **** -0.106
39228 C10 162.753 33.8315 117.093 C.ar 0 **** 0
39229 C11 163.966 33.7827 117.812 C.ar 0 **** 0
39230 C12 164.023 34.5248 119.024 C.ar 0 **** 0
39231 C13 162.942 35.2768 119.497 C.ar 0 **** 0
39232 C14 163.054 36.0418 120.786 C.3 0 **** -0.106
39233 C15 164.487 36.5273 121.01 C.3 0 **** -0.106
39234 C16 165.373 35.3138 121.088 C.3 0 **** -0.106
39235 C17 165.33 34.4947 119.815 C.ar 0 **** 0
39236 C18 166.403 33.7618 119.423 C.ar 0 **** 0
39237 C19 166.357 33.0177 118.278 C.ar 0 **** 0
39238 C20 165.088 33.016 117.339 C.ar 0 **** 0
39239 C21 164.931 32.3527 116.057 C.ar 0 **** 0
39240 C22 163.681 32.4318 115.433 C.ar 0 **** 0
39241 C23 162.628 33.1368 115.901 C.ar 0 **** 0.042
39242 C24 167.563 32.1758 117.888 C.3 0 **** -0.106
39243 C25 168.683 32.0266 118.959 C.ar 0 **** 0
39244 C26 168.687 32.8237 120.077 C.ar 0 **** 0
39245 C27 167.619 33.8334 120.343 C.3 0 **** -0.106
39246 C28 169.717 32.7271 121.01 C.ar 0 **** 0.042
39247 C29 170.774 31.8484 120.848 C.ar 0 **** 0
39248 C30 170.747 31.0439 119.72 C.ar 0 **** 0
39249 C31 169.725 31.121 118.778 C.ar 0 **** 0
39250 C32 171.861 30.0231 119.434 C.ar 0 **** 0
39251 C33 172.965 29.9879 120.496 C.3 0 **** -0.106
39252 C34 173.183 31.3444 121.163 C.3 0 **** -0.106
39253 C35 171.888 31.7498 121.864 C.3 0 **** -0.106
39254 C36 169.793 30.195 117.581 C.ar 0 **** -0.1268
39255 C37 170.837 29.3355 117.441 C.ar 0 **** 0.0265
39256 C38 171.84 29.243 118.325 C.ar 0 **** -0.1268
39257 C39 163.526 31.7079 114.148 C.3 0 **** -0.106
39258 C40 164.926 31.1989 114.038 C.ar 0 **** 0
39259 C41 165.729 31.5605 115.122 C.ar 0 **** 0
39260 C42 167.075 31.1447 115.043 C.ar 0 **** -0.1268
39261 C43 167.556 30.3749 113.964 C.ar 0 **** 0
39262 C44 166.708 30.013 112.895 C.ar 0 **** 0
39263 C45 165.374 30.447 112.94 C.ar 0 **** 0
39264 C46 164.517 30.1226 111.866 C.ar 0 **** -0.1268
39265 C47 164.941 29.3875 110.769 C.ar 0 **** 0
39266 C48 166.259 28.9725 110.743 C.ar 0 **** -0.1268
39267 C49 167.16 29.2662 111.781 C.ar 0 **** 0
39268 C50 168.504 28.8545 111.75 C.ar 0 **** 0.042
39269 C51 169.358 29.185 112.784 C.ar 0 **** -0.1268
39270 C52 168.904 29.9335 113.867 C.ar 0 **** -0.1268
39271 O53 156.588 37.3697 118.853 O.3 0 **** -0.452
39272 C54 158.17 38.0945 121.109 C.3 0 **** -0.159
39273 O55 161.478 33.1581 115.206 O.3 0 **** -0.452
39274 C56 163.907 29.1201 109.681 C.3 0 **** -0.106
39275 C57 164.412 28.1556 108.601 C.3 0 **** -0.159
39276 O58 170.86 28.5422 116.357 O.3 0 **** -0.4365
39277 O59 169.748 33.5007 122.138 O.3 0 **** -0.452
39278 O60 169.057 28.1391 110.751 O.3 0 **** -0.452
39279 H61 157.741 35.791 117.018 H 0 **** 0.1268
39280 H62 160.563 37.0045 120.928 H 0 **** 0.1268
39281 H63 160.362 35.212 115.952 H 0 **** 0.053
39282 H64 159.78 33.7591 116.85 H 0 **** 0.053
39283 H65 162.422 36.9245 120.786 H 0 **** 0.053
39284 H66 162.759 35.4033 121.648 H 0 **** 0.053
39285 H67 164.799 37.216 120.187 H 0 **** 0.053
39286 H68 164.552 37.1325 121.962 H 0 **** 0.053
39287 H69 166.394 35.6496 121.306 H 0 **** 0.053
39288 H70 165.051 34.6942 121.943 H 0 **** 0.053
39289 H71 167.204 31.1558 117.636 H 0 **** 0.053
39290 H72 167.256 33.6778 121.364 H 0 **** 0.053
39291 H73 172.691 29.2388 121.267 H 0 **** 0.053
39292 H74 173.881 29.6254 120.011 H 0 **** 0.053
39293 H75 174.003 31.2775 121.888 H 0 **** 0.053
39294 H76 173.473 32.097 120.416 H 0 **** 0.053
39295 H77 171.618 31.0021 122.622 H 0 **** 0.053
39296 H78 172.015 32.6969 122.376 H 0 **** 0.053
39297 H79 168.991 30.2364 116.87 H 0 **** 0.1268
39298 H80 172.652 28.5453 118.194 H 0 **** 0.1268
39299 H81 162.807 30.875 114.202 H 0 **** 0.053
39300 H82 163.282 32.3695 113.301 H 0 **** 0.053
39301 H83 167.842 31.3862 115.764 H 0 **** 0.1268
39302 H84 163.464 30.4589 111.888 H 0 **** 0.1268
39303 H85 166.597 28.4 109.883 H 0 **** 0.1268
39304 H86 170.416 28.8767 112.779 H 0 **** 0.1268
39305 H87 169.618 30.2304 114.687 H 0 **** 0.1268
39306 H88 156.181 37.0454 118.061 H 0 **** 0.41
39307 H89 157.46 38.8371 120.727 H 0 **** 0.053
39308 H90 158.974 38.6495 121.612 H 0 **** 0.053
39309 H91 157.646 37.4816 121.86 H 0 **** 0.053
39310 H92 161.555 32.634 114.421 H 0 **** 0.41
39311 H93 163.003 28.6965 110.129 H 0 **** 0.053
39312 H94 163.636 27.973 107.832 H 0 **** 0.053
39313 H95 164.684 27.1706 109.027 H 0 **** 0.053
39314 H96 165.297 28.5582 108.074 H 0 **** 0.053
39315 H97 170.058 28.6148 115.864 H 0 **** 0.41
39316 H98 169 34.0754 122.162 H 0 **** 0.41
39317 H99 168.4 27.9609 110.09 H 0 **** 0.41
39318 H100 168.037 32.6876 117.025 H 0 **** 0.053
39319 H101 168.042 34.841 120.26 H 0 **** 0.053
39320 H102 163.622 30.0652 109.204 H 0 **** 0.053
39321 C1 156.863 31.1812 148.412 C.ar 0 **** 0.042
39322 C2 155.96 31.186 149.459 C.ar 0 **** -0.1268
39323 C3 154.682 30.6796 149.292 C.ar 0 **** 0
39324 C4 154.272 30.1535 148.066 C.ar 0 **** 0
39325 C5 155.198 30.141 147.018 C.ar 0 **** -0.1268
39326 C6 156.476 30.6572 147.171 C.ar 0 **** 0
39327 C7 152.893 29.7179 148.222 C.ar 0 **** 0
39328 C8 152.516 29.9768 149.529 C.ar 0 **** 0
39329 C9 153.602 30.6111 150.328 C.3 0 **** -0.106
39330 C10 151.239 29.6415 149.964 C.ar 0 **** 0
39331 C11 150.315 29.0348 149.087 C.ar 0 **** 0
39332 C12 150.755 28.8008 147.755 C.ar 0 **** 0
39333 C13 152.035 29.1504 147.313 C.ar 0 **** 0
39334 C14 152.451 28.8787 145.895 C.3 0 **** -0.106
39335 C15 151.256 28.9787 144.947 C.3 0 **** -0.106
39336 C16 150.253 27.9383 145.366 C.3 0 **** -0.106
39337 C17 149.769 28.1525 146.785 C.ar 0 **** 0
39338 C18 148.523 27.7643 147.161 C.ar 0 **** 0
39339 C19 148.094 27.9525 148.444 C.ar 0 **** 0
39340 C20 148.994 28.67 149.525 C.ar 0 **** 0
39341 C21 148.639 29.0181 150.889 C.ar 0 **** 0
39342 C22 149.631 29.5892 151.693 C.ar 0 **** 0
39343 C23 150.877 29.9037 151.276 C.ar 0 **** 0.042
39344 C24 146.707 27.4702 148.843 C.3 0 **** -0.106
39345 C25 145.963 26.566 147.817 C.ar 0 **** 0
39346 C26 146.432 26.4389 146.533 C.ar 0 **** 0
39347 C27 147.679 27.1175 146.067 C.3 0 **** -0.106
39348 C28 145.738 25.6723 145.599 C.ar 0 **** 0.042
39349 C29 144.554 25.0265 145.913 C.ar 0 **** 0
39350 C30 144.102 25.1567 147.218 C.ar 0 **** 0
39351 C31 144.783 25.9138 148.167 C.ar 0 **** 0
39352 C32 142.805 24.4797 147.689 C.ar 0 **** 0
39353 C33 142.091 23.6691 146.602 C.3 0 **** -0.106
39354 C34 142.312 24.2397 145.203 C.3 0 **** -0.106
39355 C35 143.807 24.198 144.896 C.3 0 **** -0.106
39356 C36 144.2 25.9886 149.564 C.ar 0 **** -0.1268
39357 C37 143.04 25.3434 149.856 C.ar 0 **** 0.0265
39358 C38 142.357 24.6151 148.961 C.ar 0 **** -0.1268
39359 C39 149.264 29.8935 153.098 C.3 0 **** -0.106
39360 C40 147.835 29.4625 153.025 C.ar 0 **** 0
39361 C41 147.475 28.9617 151.773 C.ar 0 **** 0
39362 C42 146.122 28.5857 151.638 C.ar 0 **** -0.1268
39363 C43 145.213 28.6687 152.714 C.ar 0 **** 0
39364 C44 145.62 29.1621 153.971 C.ar 0 **** 0
39365 C45 146.956 29.5727 154.114 C.ar 0 **** 0
39366 C46 147.375 30.1001 155.355 C.ar 0 **** -0.1268
39367 C47 146.521 30.2244 156.44 C.ar 0 **** 0
39368 C48 145.21 29.8173 156.277 C.ar 0 **** -0.1268
39369 C49 144.732 29.2869 155.067 C.ar 0 **** 0
39370 C50 143.396 28.8824 154.897 C.ar 0 **** 0.042
39371 C51 142.968 28.388 153.68 C.ar 0 **** -0.1268
39372 C52 143.847 28.2881 152.605 C.ar 0 **** -0.1268
39373 O53 158.134 31.6803 148.574 O.3 0 **** -0.452
39374 C54 157.461 30.6272 146.013 C.3 0 **** -0.159
39375 O55 151.745 30.4674 152.133 O.3 0 **** -0.452
39376 C56 147.111 30.8187 157.714 C.3 0 **** -0.106
39377 C57 146.15 30.7515 158.906 C.3 0 **** -0.159
39378 O58 142.558 25.4454 151.105 O.3 0 **** -0.4365
39379 O59 146.182 25.5187 144.314 O.3 0 **** -0.452
39380 O60 142.455 28.9449 155.859 O.3 0 **** -0.452
39381 H61 156.231 31.5898 150.461 H 0 **** 0.1268
39382 H62 154.986 29.7225 146.024 H 0 **** 0.1268
39383 H63 153.352 31.627 150.684 H 0 **** 0.053
39384 H64 153.939 29.9959 151.183 H 0 **** 0.053
39385 H65 153.187 29.5984 145.547 H 0 **** 0.053
39386 H66 152.891 27.861 145.803 H 0 **** 0.053
39387 H67 150.821 30.0077 144.975 H 0 **** 0.053
39388 H68 151.585 28.8102 143.879 H 0 **** 0.053
39389 H69 149.417 27.964 144.656 H 0 **** 0.053
39390 H70 150.718 26.9409 145.276 H 0 **** 0.053
39391 H71 146.801 26.8957 149.788 H 0 **** 0.053
39392 H72 148.308 26.3661 145.579 H 0 **** 0.053
39393 H73 142.464 22.6251 146.637 H 0 **** 0.053
39394 H74 141.023 23.6354 146.861 H 0 **** 0.053
39395 H75 141.755 23.6486 144.466 H 0 **** 0.053
39396 H76 141.931 25.2696 145.145 H 0 **** 0.053
39397 H77 144.173 23.1631 144.937 H 0 **** 0.053
39398 H78 143.998 24.5686 143.895 H 0 **** 0.053
39399 H79 144.74 26.551 150.301 H 0 **** 0.1268
39400 H80 141.442 24.1068 149.22 H 0 **** 0.1268
39401 H81 149.82 29.2909 153.833 H 0 **** 0.053
39402 H82 149.338 30.9645 153.346 H 0 **** 0.053
39403 H83 145.663 28.2358 150.725 H 0 **** 0.1268
39404 H84 148.423 30.4286 155.48 H 0 **** 0.1268
39405 H85 144.536 29.9181 157.124 H 0 **** 0.1268
39406 H86 141.924 28.0711 153.522 H 0 **** 0.1268
39407 H87 143.478 27.9197 151.607 H 0 **** 0.1268
39408 H88 158.216 31.9901 149.466 H 0 **** 0.41
39409 H89 158.129 31.4959 146.046 H 0 **** 0.053
39410 H90 156.952 30.651 145.04 H 0 **** 0.053
39411 H91 158.085 29.7199 146.059 H 0 **** 0.053
39412 H92 151.343 30.5831 152.983 H 0 **** 0.41
39413 H93 148.029 30.2832 157.978 H 0 **** 0.053
39414 H94 146.61 31.1804 159.818 H 0 **** 0.053
39415 H95 145.867 29.7086 159.145 H 0 **** 0.053
39416 H96 145.223 31.3245 158.717 H 0 **** 0.053
39417 H97 143.163 25.9007 151.668 H 0 **** 0.41
39418 H98 146.982 26.0028 144.186 H 0 **** 0.41
39419 H99 142.837 29.3038 156.65 H 0 **** 0.41
39420 H100 146.08 28.3787 148.955 H 0 **** 0.053
39421 H101 147.419 27.8968 145.341 H 0 **** 0.053
39422 H102 147.384 31.8656 157.539 H 0 **** 0.053
39423 C1 142.175 27.9497 101.201 C.ar 0 **** 0.042
39424 C2 141.474 26.7673 101.349 C.ar 0 **** -0.1268
39425 C3 140.102 26.7776 101.539 C.ar 0 **** 0
39426 C4 139.393 27.9785 101.589 C.ar 0 **** 0
39427 C5 140.11 29.1682 101.428 C.ar 0 **** -0.1268
39428 C6 141.485 29.1689 101.25 C.ar 0 **** 0
39429 C7 137.993 27.6438 101.802 C.ar 0 **** 0
39430 C8 137.894 26.2646 101.859 C.ar 0 **** 0
39431 C9 139.211 25.5843 101.704 C.3 0 **** -0.106
39432 C10 136.654 25.6622 102.039 C.ar 0 **** 0
39433 C11 135.486 26.443 102.164 C.ar 0 **** 0
39434 C12 135.649 27.8543 102.107 C.ar 0 **** 0
39435 C13 136.898 28.461 101.939 C.ar 0 **** 0
39436 C14 137.016 29.9582 101.883 C.3 0 **** -0.106
39437 C15 135.948 30.6224 102.752 C.3 0 **** -0.106
39438 C16 134.603 30.2211 102.21 C.3 0 **** -0.106
39439 C17 134.399 28.7214 102.248 C.ar 0 **** 0
39440 C18 133.156 28.1925 102.384 C.ar 0 **** 0
39441 C19 132.975 26.8383 102.41 C.ar 0 **** 0
39442 C20 134.193 25.8358 102.338 C.ar 0 **** 0
39443 C21 134.161 24.3878 102.446 C.ar 0 **** 0
39444 C22 135.366 23.6973 102.278 C.ar 0 **** 0
39445 C23 136.571 24.2803 102.089 C.ar 0 **** 0.042
39446 C24 131.565 26.2778 102.523 C.3 0 **** -0.106
39447 C25 130.397 27.2928 102.352 C.ar 0 **** 0
39448 C26 130.642 28.6437 102.364 C.ar 0 **** 0
39449 C27 132.02 29.2054 102.493 C.3 0 **** -0.106
39450 C28 129.59 29.5527 102.274 C.ar 0 **** 0.042
39451 C29 128.273 29.1435 102.167 C.ar 0 **** 0
39452 C30 128.046 27.7761 102.144 C.ar 0 **** 0
39453 C31 129.082 26.8506 102.238 C.ar 0 **** 0
39454 C32 126.626 27.1993 102.031 C.ar 0 **** 0
39455 C33 125.525 28.2606 101.941 C.3 0 **** -0.106
39456 C34 125.882 29.5439 102.688 C.3 0 **** -0.106
39457 C35 127.14 30.135 102.055 C.3 0 **** -0.106
39458 C36 128.722 25.379 102.207 C.ar 0 **** -0.1268
39459 C37 127.422 24.9957 102.107 C.ar 0 **** 0.0265
39460 C38 126.402 25.8616 102.023 C.ar 0 **** -0.1268
39461 C39 135.306 22.2163 102.344 C.3 0 **** -0.106
39462 C40 133.847 22.0921 102.641 C.ar 0 **** 0
39463 C41 133.19 23.3231 102.698 C.ar 0 **** 0
39464 C42 131.819 23.2634 103.024 C.ar 0 **** -0.1268
39465 C43 131.154 22.0368 103.23 C.ar 0 **** 0
39466 C44 131.848 20.8111 103.144 C.ar 0 **** 0
39467 C45 133.221 20.8533 102.854 C.ar 0 **** 0
39468 C46 133.941 19.64 102.796 C.ar 0 **** -0.1268
39469 C47 133.344 18.4071 103.011 C.ar 0 **** 0
39470 C48 131.992 18.3881 103.298 C.ar 0 **** -0.1268
39471 C49 131.223 19.5613 103.372 C.ar 0 **** 0
39472 C50 129.85 19.5443 103.675 C.ar 0 **** 0.042
39473 C51 129.14 20.7261 103.759 C.ar 0 **** -0.1268
39474 C52 129.771 21.9495 103.551 C.ar 0 **** -0.1268
39475 O53 143.535 27.9441 101.003 O.3 0 **** -0.452
39476 C54 142.237 30.4795 101.076 C.3 0 **** -0.159
39477 O55 137.668 23.5149 101.957 O.3 0 **** -0.452
39478 C56 134.248 17.1819 102.924 C.3 0 **** -0.106
39479 C57 133.473 15.8617 102.996 C.3 0 **** -0.159
39480 O58 127.151 23.6803 102.093 O.3 0 **** -0.4365
39481 O59 129.799 30.9047 102.284 O.3 0 **** -0.452
39482 O60 129.137 18.4251 103.908 O.3 0 **** -0.452
39483 H61 141.986 25.7782 101.315 H 0 **** 0.1268
39484 H62 139.643 30.1632 101.423 H 0 **** 0.1268
39485 H63 139.515 25.0032 102.593 H 0 **** 0.053
39486 H64 139.273 24.941 100.807 H 0 **** 0.053
39487 H65 137.978 30.3001 102.253 H 0 **** 0.053
39488 H66 136.897 30.3221 100.838 H 0 **** 0.053
39489 H67 136.071 30.3194 103.821 H 0 **** 0.053
39490 H68 136.068 31.746 102.733 H 0 **** 0.053
39491 H69 133.831 30.7397 102.793 H 0 **** 0.053
39492 H70 134.517 30.585 101.171 H 0 **** 0.053
39493 H71 131.443 25.4928 101.747 H 0 **** 0.053
39494 H72 132.163 29.9356 101.69 H 0 **** 0.053
39495 H73 125.345 28.4951 100.872 H 0 **** 0.053
39496 H74 124.599 27.8132 102.329 H 0 **** 0.053
39497 H75 125.052 30.258 102.624 H 0 **** 0.053
39498 H76 126.046 29.3342 103.755 H 0 **** 0.053
39499 H77 126.961 30.359 100.994 H 0 **** 0.053
39500 H78 127.406 31.0672 102.54 H 0 **** 0.053
39501 H79 129.523 24.6669 102.254 H 0 **** 0.1268
39502 H80 125.379 25.5294 101.937 H 0 **** 0.1268
39503 H81 135.556 21.7278 101.389 H 0 **** 0.053
39504 H82 135.909 21.7907 103.161 H 0 **** 0.053
39505 H83 131.177 24.1204 103.167 H 0 **** 0.1268
39506 H84 135.023 19.6592 102.57 H 0 **** 0.1268
39507 H85 131.521 17.424 103.472 H 0 **** 0.1268
39508 H86 128.065 20.7369 104.001 H 0 **** 0.1268
39509 H87 129.191 22.9091 103.66 H 0 **** 0.1268
39510 H88 143.834 27.0455 101.027 H 0 **** 0.41
39511 H89 143.242 30.4146 101.508 H 0 **** 0.053
39512 H90 141.728 31.3148 101.577 H 0 **** 0.053
39513 H91 142.343 30.7286 100.008 H 0 **** 0.053
39514 H92 137.44 22.5978 102.023 H 0 **** 0.41
39515 H93 134.808 17.2049 101.984 H 0 **** 0.053
39516 H94 134.154 14.9911 102.92 H 0 **** 0.053
39517 H95 132.739 15.772 102.172 H 0 **** 0.053
39518 H96 132.929 15.7583 103.954 H 0 **** 0.053
39519 H97 127.943 23.1682 102.061 H 0 **** 0.41
39520 H98 130.721 31.0941 102.341 H 0 **** 0.41
39521 H99 129.704 17.668 103.839 H 0 **** 0.41
39522 H100 131.47 25.8783 103.554 H 0 **** 0.053
39523 H101 132.117 29.7115 103.459 H 0 **** 0.053
39524 H102 134.98 17.2069 103.74 H 0 **** 0.053
39525 C1 120.801 17.7602 148.924 C.ar 0 **** 0.042
39526 C2 121.187 18.2036 150.176 C.ar 0 **** -0.1268
39527 C3 120.455 19.1754 150.838 C.ar 0 **** 0
39528 C4 119.313 19.7325 150.261 C.ar 0 **** 0
39529 C5 118.924 19.268 149.001 C.ar 0 **** -0.1268
39530 C6 119.657 18.3044 148.325 C.ar 0 **** 0
39531 C7 118.789 20.7126 151.2 C.ar 0 **** 0
39532 C8 119.613 20.7102 152.313 C.ar 0 **** 0
39533 C9 120.743 19.7469 152.193 C.3 0 **** -0.106
39534 C10 119.334 21.5488 153.387 C.ar 0 **** 0
39535 C11 118.215 22.407 153.358 C.ar 0 **** 0
39536 C12 117.41 22.3729 152.187 C.ar 0 **** 0
39537 C13 117.698 21.5389 151.1 C.ar 0 **** 0
39538 C14 116.813 21.5397 149.886 C.3 0 **** -0.106
39539 C15 116.205 22.9231 149.654 C.3 0 **** -0.106
39540 C16 115.373 23.2633 150.86 C.3 0 **** -0.106
39541 C17 116.197 23.2999 152.129 C.ar 0 **** 0
39542 C18 115.85 24.1106 153.162 C.ar 0 **** 0
39543 C19 116.592 24.1349 154.308 C.ar 0 **** 0
39544 C20 117.906 23.2715 154.466 C.ar 0 **** 0
39545 C21 118.837 23.2654 155.58 C.ar 0 **** 0
39546 C22 119.901 22.3579 155.532 C.ar 0 **** 0
39547 C23 120.166 21.5326 154.495 C.ar 0 **** 0.042
39548 C24 116.153 25.0252 155.461 C.3 0 **** -0.106
39549 C25 114.738 25.6643 155.346 C.ar 0 **** 0
39550 C26 114.053 25.629 154.157 C.ar 0 **** 0
39551 C27 114.599 24.9564 152.94 C.3 0 **** -0.106
39552 C28 112.81 26.2469 154.039 C.ar 0 **** 0.042
39553 C29 112.224 26.9266 155.093 C.ar 0 **** 0
39554 C30 112.925 26.9416 156.289 C.ar 0 **** 0
39555 C31 114.166 26.3262 156.43 C.ar 0 **** 0
39556 C32 112.375 27.6569 157.533 C.ar 0 **** 0
39557 C33 111.013 28.3251 157.32 C.3 0 **** -0.106
39558 C34 110.812 28.806 155.884 C.3 0 **** -0.106
39559 C35 110.877 27.5944 154.957 C.3 0 **** -0.106
39560 C36 114.846 26.4035 157.782 C.ar 0 **** -0.1268
39561 C37 114.253 27.0702 158.807 C.ar 0 **** 0.0265
39562 C38 113.064 27.6803 158.701 C.ar 0 **** -0.1268
39563 C39 120.815 22.332 156.7 C.3 0 **** -0.106
39564 C40 120.169 23.4317 157.479 C.ar 0 **** 0
39565 C41 119.043 23.9644 156.848 C.ar 0 **** 0
39566 C42 118.425 25.0393 157.52 C.ar 0 **** -0.1268
39567 C43 118.89 25.5068 158.767 C.ar 0 **** 0
39568 C44 120.021 24.9289 159.383 C.ar 0 **** 0
39569 C45 120.669 23.8798 158.712 C.ar 0 **** 0
39570 C46 121.822 23.3095 159.295 C.ar 0 **** -0.1268
39571 C47 122.335 23.7419 160.508 C.ar 0 **** 0
39572 C48 121.684 24.7786 161.151 C.ar 0 **** -0.1268
39573 C49 120.535 25.3879 160.62 C.ar 0 **** 0
39574 C50 119.877 26.4487 161.267 C.ar 0 **** 0.042
39575 C51 118.764 27.0313 160.694 C.ar 0 **** -0.1268
39576 C52 118.28 26.583 159.468 C.ar 0 **** -0.1268
39577 O53 121.521 16.7932 148.265 O.3 0 **** -0.452
39578 C54 119.207 17.817 146.956 C.3 0 **** -0.159
39579 O55 121.23 20.7126 154.55 O.3 0 **** -0.452
39580 C56 123.59 23.0385 161.012 C.3 0 **** -0.106
39581 C57 123.982 23.4573 162.434 C.3 0 **** -0.159
39582 O58 114.897 27.1176 159.985 O.3 0 **** -0.4365
39583 O59 112.097 26.2238 152.871 O.3 0 **** -0.452
39584 O60 120.26 26.9724 162.448 O.3 0 **** -0.452
39585 H61 122.087 17.7934 150.687 H 0 **** 0.1268
39586 H62 118.026 19.6184 148.474 H 0 **** 0.1268
39587 H63 121.737 20.2304 152.197 H 0 **** 0.053
39588 H64 120.722 18.9441 152.953 H 0 **** 0.053
39589 H65 117.366 21.2869 148.986 H 0 **** 0.053
39590 H66 115.986 20.8053 150.003 H 0 **** 0.053
39591 H67 117.01 23.6786 149.48 H 0 **** 0.053
39592 H68 115.572 22.9226 148.718 H 0 **** 0.053
39593 H69 114.886 24.2294 150.678 H 0 **** 0.053
39594 H70 114.567 22.5139 150.958 H 0 **** 0.053
39595 H71 116.171 24.4185 156.391 H 0 **** 0.053
39596 H72 113.825 24.2869 152.55 H 0 **** 0.053
39597 H73 110.217 27.5972 157.578 H 0 **** 0.053
39598 H74 110.932 29.1533 158.037 H 0 **** 0.053
39599 H75 109.841 29.3067 155.789 H 0 **** 0.053
39600 H76 111.582 29.5429 155.616 H 0 **** 0.053
39601 H77 110.09 26.8741 155.221 H 0 **** 0.053
39602 H78 110.708 27.895 153.929 H 0 **** 0.053
39603 H79 115.79 25.9066 157.896 H 0 **** 0.1268
39604 H80 112.613 28.1966 159.534 H 0 **** 0.1268
39605 H81 120.781 21.3828 157.258 H 0 **** 0.053
39606 H82 121.855 22.5907 156.446 H 0 **** 0.053
39607 H83 117.583 25.6035 157.146 H 0 **** 0.1268
39608 H84 122.343 22.4841 158.777 H 0 **** 0.1268
39609 H85 122.088 25.1249 162.099 H 0 **** 0.1268
39610 H86 118.237 27.8689 161.18 H 0 **** 0.1268
39611 H87 117.394 27.0905 158.992 H 0 **** 0.1268
39612 H88 122.257 16.5513 148.81 H 0 **** 0.41
39613 H89 120.069 17.5549 146.331 H 0 **** 0.053
39614 H90 118.64 18.5852 146.412 H 0 **** 0.053
39615 H91 118.575 16.9199 147.053 H 0 **** 0.053
39616 H92 121.692 20.8287 155.369 H 0 **** 0.41
39617 H93 123.435 21.955 160.999 H 0 **** 0.053
39618 H94 124.89 22.9224 162.775 H 0 **** 0.053
39619 H95 123.179 23.2318 163.162 H 0 **** 0.053
39620 H96 124.207 24.5385 162.495 H 0 **** 0.053
39621 H97 115.674 26.583 159.971 H 0 **** 0.41
39622 H98 112.576 25.7546 152.207 H 0 **** 0.41
39623 H99 121.038 26.5245 162.754 H 0 **** 0.41
39624 H100 116.866 25.8736 155.491 H 0 **** 0.053
39625 H101 114.837 25.7125 152.183 H 0 **** 0.053
39626 H102 124.426 23.2556 160.338 H 0 **** 0.053
39627 C1 149.743 -3.49261 122.345 C.ar 0 **** 0.042
39628 C2 149.761 -3.52621 123.727 C.ar 0 **** -0.1268
39629 C3 149.879 -2.3577 124.461 C.ar 0 **** 0
39630 C4 149.985 -1.11882 123.828 C.ar 0 **** 0
39631 C5 149.952 -1.09446 122.43 C.ar 0 **** -0.1268
39632 C6 149.846 -2.25993 121.686 C.ar 0 **** 0
39633 C7 150.099 -0.109873 124.87 C.ar 0 **** 0
39634 C8 150.045 -0.758529 126.091 C.ar 0 **** 0
39635 C9 149.907 -2.23595 125.955 C.3 0 **** -0.106
39636 C10 150.115 -0.0268703 127.272 C.ar 0 **** 0
39637 C11 150.239 1.37797 127.242 C.ar 0 **** 0
39638 C12 150.298 1.9889 125.959 C.ar 0 **** 0
39639 C13 150.241 1.25175 124.771 C.ar 0 **** 0
39640 C14 150.305 1.94734 123.44 C.3 0 **** -0.106
39641 C15 151.167 3.20731 123.524 C.3 0 **** -0.106
39642 C16 150.527 4.13182 124.524 C.3 0 **** -0.106
39643 C17 150.441 3.50879 125.901 C.ar 0 **** 0
39644 C18 150.472 4.28168 127.017 C.ar 0 **** 0
39645 C19 150.385 3.71586 128.258 C.ar 0 **** 0
39646 C20 150.3 2.1511 128.453 C.ar 0 **** 0
39647 C21 150.296 1.40999 129.702 C.ar 0 **** 0
39648 C22 150.138 0.021639 129.632 C.ar 0 **** 0
39649 C23 150.057 -0.689999 128.486 C.ar 0 **** 0.042
39650 C24 150.384 4.61335 129.487 C.3 0 **** -0.106
39651 C25 150.229 6.14115 129.232 C.ar 0 **** 0
39652 C26 150.353 6.65122 127.963 C.ar 0 **** 0
39653 C27 150.601 5.78258 126.773 C.3 0 **** -0.106
39654 C28 150.269 8.02435 127.742 C.ar 0 **** 0.042
39655 C29 150.073 8.92396 128.776 C.ar 0 **** 0
39656 C30 149.939 8.38964 130.048 C.ar 0 **** 0
39657 C31 150.016 7.02053 130.29 C.ar 0 **** 0
39658 C32 149.712 9.28659 131.275 C.ar 0 **** 0
39659 C33 149.646 10.7829 130.953 C.3 0 **** -0.106
39660 C34 150.505 11.164 129.75 C.3 0 **** -0.106
39661 C35 149.983 10.4108 128.528 C.3 0 **** -0.106
39662 C36 149.858 6.54414 131.719 C.ar 0 **** -0.1268
39663 C37 149.666 7.44208 132.721 C.ar 0 **** 0.0265
39664 C38 149.595 8.76549 132.522 C.ar 0 **** -0.1268
39665 C39 150.088 -0.713316 130.92 C.3 0 **** -0.106
39666 C40 150.299 0.457994 131.823 C.ar 0 **** 0
39667 C41 150.415 1.66811 131.137 C.ar 0 **** 0
39668 C42 150.665 2.79916 131.942 C.ar 0 **** -0.1268
39669 C43 150.742 2.71215 133.347 C.ar 0 **** 0
39670 C44 150.599 1.47296 134.007 C.ar 0 **** 0
39671 C45 150.384 0.330961 133.219 C.ar 0 **** 0
39672 C46 150.272 -0.923605 133.857 C.ar 0 **** -0.1268
39673 C47 150.361 -1.07171 135.233 C.ar 0 **** 0
39674 C48 150.577 0.064836 135.99 C.ar 0 **** -0.1268
39675 C49 150.7 1.33999 135.413 C.ar 0 **** 0
39676 C50 150.931 2.495 136.181 C.ar 0 **** 0.042
39677 C51 151.067 3.72402 135.566 C.ar 0 **** -0.1268
39678 C52 150.985 3.83824 134.181 C.ar 0 **** -0.1268
39679 O53 149.623 -4.64952 121.613 O.3 0 **** -0.452
39680 C54 149.81 -2.20149 120.166 C.3 0 **** -0.159
39681 O55 149.925 -2.02678 128.54 O.3 0 **** -0.452
39682 C56 150.229 -2.48826 135.781 C.3 0 **** -0.106
39683 C57 150.16 -2.53245 137.312 C.3 0 **** -0.159
39684 O58 149.545 6.97417 133.974 O.3 0 **** -0.4365
39685 O59 150.381 8.56442 126.489 O.3 0 **** -0.452
39686 O60 151.044 2.50422 137.524 O.3 0 **** -0.452
39687 H61 149.676 -4.48523 124.288 H 0 **** 0.1268
39688 H62 149.996 -0.170994 121.837 H 0 **** 0.1268
39689 H63 150.764 -2.79929 126.366 H 0 **** 0.053
39690 H64 148.968 -2.63317 126.382 H 0 **** 0.053
39691 H65 150.749 1.31461 122.677 H 0 **** 0.053
39692 H66 149.286 2.23776 123.101 H 0 **** 0.053
39693 H67 152.214 2.94505 123.813 H 0 **** 0.053
39694 H68 151.239 3.70188 122.51 H 0 **** 0.053
39695 H69 151.107 5.06274 124.548 H 0 **** 0.053
39696 H70 149.516 4.39496 124.168 H 0 **** 0.053
39697 H71 149.545 4.29763 130.143 H 0 **** 0.053
39698 H72 149.866 6.04606 126.006 H 0 **** 0.053
39699 H73 148.589 11.0554 130.753 H 0 **** 0.053
39700 H74 149.95 11.3305 131.856 H 0 **** 0.053
39701 H75 150.453 12.2465 129.58 H 0 **** 0.053
39702 H76 151.56 10.9167 129.938 H 0 **** 0.053
39703 H77 148.936 10.6801 128.337 H 0 **** 0.053
39704 H78 150.552 10.6806 127.646 H 0 **** 0.053
39705 H79 149.89 5.48722 131.901 H 0 **** 0.1268
39706 H80 149.428 9.45431 133.335 H 0 **** 0.1268
39707 H81 149.113 -1.18773 131.113 H 0 **** 0.053
39708 H82 150.901 -1.44828 131.035 H 0 **** 0.053
39709 H83 150.84 3.79853 131.571 H 0 **** 0.1268
39710 H84 150.104 -1.83085 133.248 H 0 **** 0.1268
39711 H85 150.653 -0.0476048 137.068 H 0 **** 0.1268
39712 H86 151.254 4.64226 136.147 H 0 **** 0.1268
39713 H87 151.136 4.83988 133.688 H 0 **** 0.1268
39714 H88 149.565 -5.37586 122.219 H 0 **** 0.41
39715 H89 150.286 -3.0872 119.73 H 0 **** 0.053
39716 H90 150.346 -1.32495 119.776 H 0 **** 0.053
39717 H91 148.77 -2.16394 119.805 H 0 **** 0.053
39718 H92 149.904 -2.32118 129.44 H 0 **** 0.41
39719 H93 149.323 -2.95361 135.38 H 0 **** 0.053
39720 H94 150.053 -3.57216 137.679 H 0 **** 0.053
39721 H95 149.296 -1.96087 137.7 H 0 **** 0.053
39722 H96 151.078 -2.12344 137.774 H 0 **** 0.053
39723 H97 149.487 6.0324 133.986 H 0 **** 0.41
39724 H98 150.523 7.88208 125.853 H 0 **** 0.41
39725 H99 150.939 1.62122 137.854 H 0 **** 0.41
39726 H100 151.374 4.48547 129.969 H 0 **** 0.053
39727 H101 151.609 5.97297 126.388 H 0 **** 0.053
39728 H102 151.08 -3.09252 135.448 H 0 **** 0.053
39729 C1 161.922 48.0686 182.47 C.ar 0 **** 0.042
39730 C2 163.16 47.7855 183.016 C.ar 0 **** -0.1268
39731 C3 164.234 47.4608 182.203 C.ar 0 **** 0
39732 C4 164.094 47.4098 180.816 C.ar 0 **** 0
39733 C5 162.841 47.711 180.273 C.ar 0 **** -0.1268
39734 C6 161.757 48.0248 181.079 C.ar 0 **** 0
39735 C7 165.389 47.0392 180.265 C.ar 0 **** 0
39736 C8 166.269 46.8922 181.323 C.ar 0 **** 0
39737 C9 165.628 47.1383 182.646 C.3 0 **** -0.106
39738 C10 167.596 46.5536 181.083 C.ar 0 **** 0
39739 C11 168.062 46.3583 179.766 C.ar 0 **** 0
39740 C12 167.112 46.5141 178.72 C.ar 0 **** 0
39741 C13 165.773 46.8415 178.963 C.ar 0 **** 0
39742 C14 164.809 46.9969 177.82 C.3 0 **** -0.106
39743 C15 165.176 46.065 176.665 C.3 0 **** -0.106
39744 C16 166.553 46.4451 176.193 C.3 0 **** -0.106
39745 C17 167.591 46.299 177.286 C.ar 0 **** 0
39746 C18 168.882 46.0083 176.984 C.ar 0 **** 0
39747 C19 169.817 45.885 177.973 C.ar 0 **** 0
39748 C20 169.435 46.0202 179.499 C.ar 0 **** 0
39749 C21 170.296 45.8246 180.652 C.ar 0 **** 0
39750 C22 169.752 46.0715 181.917 C.ar 0 **** 0
39751 C23 168.466 46.4133 182.152 C.ar 0 **** 0.042
39752 C24 171.264 45.5979 177.598 C.3 0 **** -0.106
39753 C25 171.627 45.7114 176.088 C.ar 0 **** 0
39754 C26 170.639 45.8066 175.14 C.ar 0 **** 0
39755 C27 169.189 45.8438 175.498 C.3 0 **** -0.106
39756 C28 170.961 45.8541 173.785 C.ar 0 **** 0.042
39757 C29 172.27 45.7942 173.34 C.ar 0 **** 0
39758 C30 173.255 45.71 174.312 C.ar 0 **** 0
39759 C31 172.954 45.6658 175.671 C.ar 0 **** 0
39760 C32 174.746 45.645 173.942 C.ar 0 **** 0
39761 C33 175.018 45.6864 172.435 C.3 0 **** -0.106
39762 C34 173.894 45.0559 171.616 C.3 0 **** -0.106
39763 C35 172.612 45.8462 171.87 C.3 0 **** -0.106
39764 C36 174.108 45.5733 176.649 C.ar 0 **** -0.1268
39765 C37 175.388 45.5205 176.193 C.ar 0 **** 0.0265
39766 C38 175.709 45.5524 174.892 C.ar 0 **** -0.1268
39767 C39 170.66 45.9134 183.08 C.3 0 **** -0.106
39768 C40 171.869 45.4646 182.326 C.ar 0 **** 0
39769 C41 171.669 45.4145 180.945 C.ar 0 **** 0
39770 C42 172.766 44.9499 180.191 C.ar 0 **** -0.1268
39771 C43 173.994 44.6063 180.794 C.ar 0 **** 0
39772 C44 174.165 44.6893 182.192 C.ar 0 **** 0
39773 C45 173.072 45.1179 182.962 C.ar 0 **** 0
39774 C46 173.211 45.1764 184.366 C.ar 0 **** -0.1268
39775 C47 174.387 44.8314 185.014 C.ar 0 **** 0
39776 C48 175.45 44.4089 184.238 C.ar 0 **** -0.1268
39777 C49 175.372 44.3272 182.837 C.ar 0 **** 0
39778 C50 176.449 43.887 182.047 C.ar 0 **** 0.042
39779 C51 176.317 43.8021 180.675 C.ar 0 **** -0.1268
39780 C52 175.118 44.1435 180.055 C.ar 0 **** -0.1268
39781 O53 160.855 48.3937 183.273 O.3 0 **** -0.452
39782 C54 160.407 48.3506 180.459 C.3 0 **** -0.159
39783 O55 168.048 46.6089 183.415 O.3 0 **** -0.452
39784 C56 174.389 44.936 186.535 C.3 0 **** -0.106
39785 C57 175.776 44.7094 187.148 C.3 0 **** -0.159
39786 O58 176.377 45.43 177.097 O.3 0 **** -0.4365
39787 O59 170.001 45.9556 172.816 O.3 0 **** -0.452
39788 O60 177.649 43.5184 182.536 O.3 0 **** -0.452
39789 H61 163.333 47.8139 184.117 H 0 **** 0.1268
39790 H62 162.634 47.7294 179.194 H 0 **** 0.1268
39791 H63 165.622 46.2513 183.305 H 0 **** 0.053
39792 H64 166.058 47.998 183.192 H 0 **** 0.053
39793 H65 163.794 46.7451 178.114 H 0 **** 0.053
39794 H66 164.812 48.0438 177.444 H 0 **** 0.053
39795 H67 165.132 44.9985 176.996 H 0 **** 0.053
39796 H68 164.425 46.1621 175.827 H 0 **** 0.053
39797 H69 166.802 45.8197 175.327 H 0 **** 0.053
39798 H70 166.53 47.4898 175.836 H 0 **** 0.053
39799 H71 171.911 46.3102 178.152 H 0 **** 0.053
39800 H72 168.737 46.6973 174.982 H 0 **** 0.053
39801 H73 175.149 46.7441 172.127 H 0 **** 0.053
39802 H74 175.978 45.1824 172.257 H 0 **** 0.053
39803 H75 174.15 45.0782 170.549 H 0 **** 0.053
39804 H76 173.762 44.0007 171.894 H 0 **** 0.053
39805 H77 172.748 46.894 171.57 H 0 **** 0.053
39806 H78 171.797 45.4446 171.279 H 0 **** 0.053
39807 H79 173.876 45.566 177.696 H 0 **** 0.1268
39808 H80 176.734 45.5173 174.558 H 0 **** 0.1268
39809 H81 170.855 46.8585 183.611 H 0 **** 0.053
39810 H82 170.33 45.1371 183.789 H 0 **** 0.053
39811 H83 172.763 44.7939 179.122 H 0 **** 0.1268
39812 H84 172.357 45.5107 184.984 H 0 **** 0.1268
39813 H85 176.372 44.1324 184.742 H 0 **** 0.1268
39814 H86 177.145 43.4544 180.036 H 0 **** 0.1268
39815 H87 175.009 44.0342 178.939 H 0 **** 0.1268
39816 H88 161.147 48.3724 184.174 H 0 **** 0.41
39817 H89 159.588 48.0194 181.109 H 0 **** 0.053
39818 H90 160.269 47.8515 179.49 H 0 **** 0.053
39819 H91 160.302 49.4371 180.31 H 0 **** 0.053
39820 H92 168.76 46.4712 184.024 H 0 **** 0.41
39821 H93 174.035 45.9277 186.835 H 0 **** 0.053
39822 H94 175.747 44.8023 188.252 H 0 **** 0.053
39823 H95 176.512 45.449 186.779 H 0 **** 0.053
39824 H96 176.162 43.6979 186.923 H 0 **** 0.053
39825 H97 176.044 45.5131 177.976 H 0 **** 0.41
39826 H98 169.144 45.9796 173.208 H 0 **** 0.41
39827 H99 177.643 43.6023 183.481 H 0 **** 0.41
39828 H100 171.455 44.5416 177.877 H 0 **** 0.053
39829 H101 168.707 44.9199 175.158 H 0 **** 0.053
39830 H102 173.693 44.2011 186.955 H 0 **** 0.053
39831 C1 125.121 13.8771 174.797 C.ar 0 **** 0.042
39832 C2 124.282 14.9522 174.57 C.ar 0 **** -0.1268
39833 C3 124.732 16.068 173.884 C.ar 0 **** 0
39834 C4 126.041 16.1372 173.405 C.ar 0 **** 0
39835 C5 126.877 15.0392 173.628 C.ar 0 **** -0.1268
39836 C6 126.44 13.9228 174.324 C.ar 0 **** 0
39837 C7 126.191 17.4251 172.745 C.ar 0 **** 0
39838 C8 124.977 18.0852 172.83 C.ar 0 **** 0
39839 C9 123.942 17.299 173.558 C.3 0 **** -0.106
39840 C10 124.829 19.3455 172.261 C.ar 0 **** 0
39841 C11 125.906 19.9646 171.592 C.ar 0 **** 0
39842 C12 127.13 19.2434 171.544 C.ar 0 **** 0
39843 C13 127.284 17.9809 172.128 C.ar 0 **** 0
39844 C14 128.599 17.2596 172.046 C.3 0 **** -0.106
39845 C15 129.765 18.2492 172.036 C.3 0 **** -0.106
39846 C16 129.613 19.1199 170.818 C.3 0 **** -0.106
39847 C17 128.313 19.8973 170.833 C.ar 0 **** 0
39848 C18 128.22 21.1066 170.222 C.ar 0 **** 0
39849 C19 127.043 21.8014 170.231 C.ar 0 **** 0
39850 C20 125.766 21.2624 170.988 C.ar 0 **** 0
39851 C21 124.487 21.9284 171.159 C.ar 0 **** 0
39852 C22 123.469 21.2226 171.81 C.ar 0 **** 0
39853 C23 123.608 19.9924 172.351 C.ar 0 **** 0.042
39854 C24 126.961 23.1354 169.503 C.3 0 **** -0.106
39855 C25 128.162 23.5015 168.583 C.ar 0 **** 0
39856 C26 129.328 22.7786 168.64 C.ar 0 **** 0
39857 C27 129.495 21.601 169.544 C.3 0 **** -0.106
39858 C28 130.421 23.1375 167.855 C.ar 0 **** 0.042
39859 C29 130.389 24.2308 167.007 C.ar 0 **** 0
39860 C30 129.2 24.9419 166.954 C.ar 0 **** 0
39861 C31 128.094 24.5967 167.726 C.ar 0 **** 0
39862 C32 129.039 26.1698 166.043 C.ar 0 **** 0
39863 C33 130.287 26.5066 165.223 C.3 0 **** -0.106
39864 C34 131.581 26.125 165.939 C.3 0 **** -0.106
39865 C35 131.578 24.6141 166.159 C.3 0 **** -0.106
39866 C36 126.843 25.4409 167.588 C.ar 0 **** -0.1268
39867 C37 126.827 26.506 166.744 C.ar 0 **** 0.0265
39868 C38 127.878 26.8706 165.996 C.ar 0 **** -0.1268
39869 C39 122.155 21.9003 171.932 C.3 0 **** -0.106
39870 C40 122.54 23.1926 171.288 C.ar 0 **** 0
39871 C41 123.863 23.2136 170.844 C.ar 0 **** 0
39872 C42 124.291 24.43 170.272 C.ar 0 **** -0.1268
39873 C43 123.42 25.5292 170.119 C.ar 0 **** 0
39874 C44 122.082 25.4624 170.563 C.ar 0 **** 0
39875 C45 121.649 24.2707 171.166 C.ar 0 **** 0
39876 C46 120.323 24.1948 171.646 C.ar 0 **** -0.1268
39877 C47 119.43 25.2503 171.542 C.ar 0 **** 0
39878 C48 119.878 26.4158 170.948 C.ar 0 **** -0.1268
39879 C49 121.185 26.5531 170.453 C.ar 0 **** 0
39880 C50 121.645 27.7418 169.859 C.ar 0 **** 0.042
39881 C51 122.947 27.8365 169.407 C.ar 0 **** -0.1268
39882 C52 123.824 26.7629 169.538 C.ar 0 **** -0.1268
39883 O53 124.678 12.7667 175.475 O.3 0 **** -0.452
39884 C54 127.372 12.7423 174.549 C.3 0 **** -0.159
39885 O55 122.563 19.4159 172.971 O.3 0 **** -0.452
39886 C56 118.034 25.0277 172.112 C.3 0 **** -0.106
39887 C57 117.068 26.1745 171.794 C.3 0 **** -0.159
39888 O58 125.696 27.2244 166.655 O.3 0 **** -0.4365
39889 O59 131.594 22.4328 167.881 O.3 0 **** -0.452
39890 O60 120.894 28.8473 169.691 O.3 0 **** -0.452
39891 H61 123.225 14.9524 174.925 H 0 **** 0.1268
39892 H62 127.913 14.9805 173.266 H 0 **** 0.1268
39893 H63 123.593 17.7835 174.488 H 0 **** 0.053
39894 H64 123.069 17.0324 172.934 H 0 **** 0.053
39895 H65 128.753 16.6056 172.9 H 0 **** 0.053
39896 H66 128.651 16.6426 171.122 H 0 **** 0.053
39897 H67 129.773 18.8514 172.977 H 0 **** 0.053
39898 H68 130.75 17.6962 172.012 H 0 **** 0.053
39899 H69 130.476 19.7953 170.771 H 0 **** 0.053
39900 H70 129.657 18.4818 169.918 H 0 **** 0.053
39901 H71 126.047 23.1279 168.873 H 0 **** 0.053
39902 H72 129.881 20.77 168.946 H 0 **** 0.053
39903 H73 130.231 25.9731 164.253 H 0 **** 0.053
39904 H74 130.255 27.5797 164.997 H 0 **** 0.053
39905 H75 132.446 26.4202 165.332 H 0 **** 0.053
39906 H76 131.662 26.6578 166.897 H 0 **** 0.053
39907 H77 131.517 24.0913 165.195 H 0 **** 0.053
39908 H78 132.499 24.3004 166.639 H 0 **** 0.053
39909 H79 125.983 25.158 168.164 H 0 **** 0.1268
39910 H80 127.837 27.7178 165.33 H 0 **** 0.1268
39911 H81 121.354 21.4009 171.365 H 0 **** 0.053
39912 H82 121.843 22.0605 172.977 H 0 **** 0.053
39913 H83 125.295 24.6375 169.932 H 0 **** 0.1268
39914 H84 119.97 23.2628 172.124 H 0 **** 0.1268
39915 H85 119.182 27.2475 170.869 H 0 **** 0.1268
39916 H86 123.331 28.7603 168.944 H 0 **** 0.1268
39917 H87 124.894 26.8649 169.202 H 0 **** 0.1268
39918 H88 123.773 12.9118 175.717 H 0 **** 0.41
39919 H89 127.16 12.2523 175.506 H 0 **** 0.053
39920 H90 128.427 13.0506 174.574 H 0 **** 0.053
39921 H91 127.247 11.9929 173.751 H 0 **** 0.053
39922 H92 121.808 19.9874 172.949 H 0 **** 0.41
39923 H93 117.616 24.0997 171.708 H 0 **** 0.053
39924 H94 116.061 25.9793 172.211 H 0 **** 0.053
39925 H95 116.945 26.315 170.702 H 0 **** 0.053
39926 H96 117.413 27.1322 172.227 H 0 **** 0.053
39927 H97 125.006 26.841 167.173 H 0 **** 0.41
39928 H98 131.533 21.7221 168.498 H 0 **** 0.41
39929 H99 120.023 28.6923 170.034 H 0 **** 0.41
39930 H100 126.932 23.9181 170.289 H 0 **** 0.053
39931 H101 130.218 21.8463 170.331 H 0 **** 0.053
39932 H102 118.096 24.9098 173.2 H 0 **** 0.053
39933 C1 118.628 81.1903 149.381 C.ar 0 **** 0.042
39934 C2 117.422 81.1492 148.707 C.ar 0 **** -0.1268
39935 C3 117.387 81.0591 147.325 C.ar 0 **** 0
39936 C4 118.565 81.0102 146.578 C.ar 0 **** 0
39937 C5 119.78 81.0373 147.271 C.ar 0 **** -0.1268
39938 C6 119.825 81.1394 148.654 C.ar 0 **** 0
39939 C7 118.183 80.9321 145.176 C.ar 0 **** 0
39940 C8 116.801 80.9117 145.117 C.ar 0 **** 0
39941 C9 116.164 80.9993 146.461 C.3 0 **** -0.106
39942 C10 116.16 80.8177 143.886 C.ar 0 **** 0
39943 C11 116.904 80.7332 142.69 C.ar 0 **** 0
39944 C12 118.32 80.7661 142.813 C.ar 0 **** 0
39945 C13 118.963 80.8862 144.049 C.ar 0 **** 0
39946 C14 120.458 80.9234 144.125 C.3 0 **** -0.106
39947 C15 121.069 81.56 142.881 C.3 0 **** -0.106
39948 C16 120.655 80.7369 141.69 C.3 0 **** -0.106
39949 C17 119.15 80.6808 141.532 C.ar 0 **** 0
39950 C18 118.583 80.5446 140.305 C.ar 0 **** 0
39951 C19 117.225 80.4862 140.169 C.ar 0 **** 0
39952 C20 116.257 80.6234 141.41 C.ar 0 **** 0
39953 C21 114.806 80.673 141.406 C.ar 0 **** 0
39954 C22 114.155 80.7264 142.644 C.ar 0 **** 0
39955 C23 114.776 80.8045 143.841 C.ar 0 **** 0.042
39956 C24 116.623 80.2955 138.785 C.3 0 **** -0.106
39957 C25 117.613 79.9284 137.642 C.ar 0 **** 0
39958 C26 118.969 80.0328 137.833 C.ar 0 **** 0
39959 C27 119.561 80.4604 139.136 C.3 0 **** -0.106
39960 C28 119.854 79.7555 136.793 C.ar 0 **** 0.042
39961 C29 119.414 79.3833 135.535 C.ar 0 **** 0
39962 C30 118.042 79.2733 135.363 C.ar 0 **** 0
39963 C31 117.141 79.5394 136.391 C.ar 0 **** 0
39964 C32 117.432 78.8628 134.015 C.ar 0 **** 0
39965 C33 118.467 78.5957 132.921 C.3 0 **** -0.106
39966 C34 119.729 79.4381 133.075 C.3 0 **** -0.106
39967 C35 120.379 79.0857 134.412 C.3 0 **** -0.106
39968 C36 115.663 79.3855 136.094 C.ar 0 **** -0.1268
39969 C37 115.25 79.0126 134.854 C.ar 0 **** 0.0265
39970 C38 116.091 78.7586 133.842 C.ar 0 **** -0.1268
39971 C39 112.672 80.727 142.622 C.3 0 **** -0.106
39972 C40 112.498 80.7214 141.138 C.ar 0 **** 0
39973 C41 113.707 80.6884 140.442 C.ar 0 **** 0
39974 C42 113.598 80.7308 139.036 C.ar 0 **** -0.1268
39975 C43 112.347 80.7564 138.385 C.ar 0 **** 0
39976 C44 111.145 80.7684 139.124 C.ar 0 **** 0
39977 C45 111.235 80.7609 140.525 C.ar 0 **** 0
39978 C46 110.045 80.8058 141.283 C.ar 0 **** -0.1268
39979 C47 108.789 80.8527 140.697 C.ar 0 **** 0
39980 C48 108.722 80.8628 139.316 C.ar 0 **** -0.1268
39981 C49 109.871 80.822 138.508 C.ar 0 **** 0
39982 C50 109.805 80.8433 137.104 C.ar 0 **** 0.042
39983 C51 110.963 80.8246 136.352 C.ar 0 **** -0.1268
39984 C52 112.211 80.7907 136.97 C.ar 0 **** -0.1268
39985 O53 118.666 81.2785 150.752 O.3 0 **** -0.452
39986 C54 121.161 81.165 149.38 C.3 0 **** -0.159
39987 O55 114.047 80.8708 144.968 O.3 0 **** -0.452
39988 C56 107.593 80.9061 141.641 C.3 0 **** -0.106
39989 C57 106.25 80.7749 140.913 C.3 0 **** -0.159
39990 O58 113.93 78.8963 134.636 O.3 0 **** -0.4365
39991 O59 121.21 79.8425 136.952 O.3 0 **** -0.452
39992 O60 108.659 80.889 136.398 O.3 0 **** -0.452
39993 H61 116.449 81.1826 149.249 H 0 **** 0.1268
39994 H62 120.761 80.9675 146.781 H 0 **** 0.1268
39995 H63 115.556 81.9113 146.601 H 0 **** 0.053
39996 H64 115.561 80.1111 146.723 H 0 **** 0.053
39997 H65 120.813 81.4821 144.984 H 0 **** 0.053
39998 H66 120.837 79.8922 144.211 H 0 **** 0.053
39999 H67 120.73 82.6205 142.788 H 0 **** 0.053
40000 H68 122.195 81.599 142.968 H 0 **** 0.053
40001 H69 121.128 81.1677 140.798 H 0 **** 0.053
40002 H70 121.057 79.7149 141.801 H 0 **** 0.053
40003 H71 115.868 79.4842 138.847 H 0 **** 0.053
40004 H72 120.328 79.7303 139.413 H 0 **** 0.053
40005 H73 118.74 77.5246 132.963 H 0 **** 0.053
40006 H74 117.977 78.7695 131.954 H 0 **** 0.053
40007 H75 120.421 79.2305 132.25 H 0 **** 0.053
40008 H76 119.484 80.5084 133.031 H 0 **** 0.053
40009 H77 120.641 78.0192 134.436 H 0 **** 0.053
40010 H78 121.297 79.6466 134.546 H 0 **** 0.053
40011 H79 114.971 79.5664 136.894 H 0 **** 0.1268
40012 H80 115.737 78.4561 132.869 H 0 **** 0.1268
40013 H81 112.23 79.825 143.074 H 0 **** 0.053
40014 H82 112.23 81.6335 143.065 H 0 **** 0.053
40015 H83 114.432 80.7722 138.35 H 0 **** 0.1268
40016 H84 110.102 80.8018 142.387 H 0 **** 0.1268
40017 H85 107.74 80.9049 138.854 H 0 **** 0.1268
40018 H86 110.936 80.8469 135.25 H 0 **** 0.1268
40019 H87 113.149 80.8144 136.348 H 0 **** 0.1268
40020 H88 117.774 81.2997 151.071 H 0 **** 0.41
40021 H89 121.104 81.7864 150.282 H 0 **** 0.053
40022 H90 121.961 81.5822 148.753 H 0 **** 0.053
40023 H91 121.453 80.1483 149.688 H 0 **** 0.053
40024 H92 113.122 80.85 144.765 H 0 **** 0.41
40025 H93 107.669 80.0984 142.376 H 0 **** 0.053
40026 H94 105.402 80.8064 141.625 H 0 **** 0.053
40027 H95 106.176 79.818 140.361 H 0 **** 0.053
40028 H96 106.093 81.5997 140.193 H 0 **** 0.053
40029 H97 113.441 79.0085 135.435 H 0 **** 0.41
40030 H98 121.419 80.1127 137.832 H 0 **** 0.41
40031 H99 107.922 80.9079 136.995 H 0 **** 0.41
40032 H100 116.18 81.2712 138.5 H 0 **** 0.053
40033 H101 120.025 81.4462 139.018 H 0 **** 0.053
40034 H102 107.603 81.852 142.195 H 0 **** 0.053
40035 C1 124.746 88.0362 125.49 C.ar 0 **** 0.042
40036 C2 124.209 86.9278 126.117 C.ar 0 **** -0.1268
40037 C3 124.131 85.7125 125.457 C.ar 0 **** 0
40038 C4 124.587 85.5763 124.144 C.ar 0 **** 0
40039 C5 125.136 86.701 123.523 C.ar 0 **** -0.1268
40040 C6 125.21 87.9235 124.172 C.ar 0 **** 0
40041 C7 124.361 84.1941 123.75 C.ar 0 **** 0
40042 C8 123.795 83.537 124.829 C.ar 0 **** 0
40043 C9 123.591 84.4274 126.006 C.3 0 **** -0.106
40044 C10 123.487 82.1846 124.735 C.ar 0 **** 0
40045 C11 123.746 81.4675 123.548 C.ar 0 **** 0
40046 C12 124.321 82.1965 122.471 C.ar 0 **** 0
40047 C13 124.619 83.5605 122.56 C.ar 0 **** 0
40048 C14 125.228 84.2842 121.393 C.3 0 **** -0.106
40049 C15 124.749 83.6863 120.07 C.3 0 **** -0.106
40050 C16 125.19 82.2484 120.033 C.3 0 **** -0.106
40051 C17 124.603 81.4431 121.173 C.ar 0 **** 0
40052 C18 124.363 80.114 121.033 C.ar 0 **** 0
40053 C19 123.84 79.3895 122.067 C.ar 0 **** 0
40054 C20 123.445 80.0655 123.439 C.ar 0 **** 0
40055 C21 122.801 79.4454 124.583 C.ar 0 **** 0
40056 C22 122.612 80.2287 125.727 C.ar 0 **** 0
40057 C23 122.923 81.5399 125.824 C.ar 0 **** 0.042
40058 C24 123.62 77.8941 121.891 C.3 0 **** -0.106
40059 C25 124.242 77.2437 120.621 C.ar 0 **** 0
40060 C26 124.727 78.0284 119.604 C.ar 0 **** 0
40061 C27 124.721 79.5205 119.674 C.3 0 **** -0.106
40062 C28 125.235 77.4472 118.444 C.ar 0 **** 0.042
40063 C29 125.26 76.0755 118.26 C.ar 0 **** 0
40064 C30 124.777 75.2994 119.302 C.ar 0 **** 0
40065 C31 124.269 75.8598 120.472 C.ar 0 **** 0
40066 C32 124.759 73.7645 119.219 C.ar 0 **** 0
40067 C33 125.319 73.2025 117.908 C.3 0 **** -0.106
40068 C34 125.09 74.137 116.722 C.3 0 **** -0.106
40069 C35 125.812 75.4532 117 C.3 0 **** -0.106
40070 C36 123.766 74.9187 121.548 C.ar 0 **** -0.1268
40071 C37 123.804 73.5743 121.351 C.ar 0 **** 0.0265
40072 C38 124.277 73.0049 120.234 C.ar 0 **** -0.1268
40073 C39 121.997 79.5647 126.902 C.3 0 **** -0.106
40074 C40 121.775 78.226 126.276 C.ar 0 **** 0
40075 C41 122.233 78.1521 124.959 C.ar 0 **** 0
40076 C42 122.004 76.9235 124.306 C.ar 0 **** -0.1268
40077 C43 121.395 75.8332 124.962 C.ar 0 **** 0
40078 C44 120.963 75.9396 126.301 C.ar 0 **** 0
40079 C45 121.153 77.1665 126.956 C.ar 0 **** 0
40080 C46 120.701 77.305 128.287 C.ar 0 **** -0.1268
40081 C47 120.079 76.2722 128.972 C.ar 0 **** 0
40082 C48 119.897 75.0745 128.306 C.ar 0 **** -0.1268
40083 C49 120.327 74.8767 126.985 C.ar 0 **** 0
40084 C50 120.145 73.6614 126.302 C.ar 0 **** 0.042
40085 C51 120.555 73.5235 124.992 C.ar 0 **** -0.1268
40086 C52 121.161 74.583 124.325 C.ar 0 **** -0.1268
40087 O53 124.839 89.2413 126.143 O.3 0 **** -0.452
40088 C54 125.814 89.1283 123.474 C.3 0 **** -0.159
40089 O55 122.679 82.1994 126.969 O.3 0 **** -0.452
40090 C56 119.634 76.565 130.4 C.3 0 **** -0.106
40091 C57 119.121 75.3199 131.133 C.3 0 **** -0.159
40092 O58 123.339 72.7803 122.33 O.3 0 **** -0.4365
40093 O59 125.733 78.1998 117.416 O.3 0 **** -0.452
40094 O60 119.576 72.566 126.833 O.3 0 **** -0.452
40095 H61 123.834 86.9756 127.164 H 0 **** 0.1268
40096 H62 125.55 86.6939 122.505 H 0 **** 0.1268
40097 H63 122.53 84.5515 126.287 H 0 **** 0.053
40098 H64 124.173 84.124 126.896 H 0 **** 0.053
40099 H65 124.949 85.3338 121.38 H 0 **** 0.053
40100 H66 126.338 84.2203 121.428 H 0 **** 0.053
40101 H67 123.64 83.7815 119.978 H 0 **** 0.053
40102 H68 125.183 84.2607 119.199 H 0 **** 0.053
40103 H69 124.901 81.827 119.062 H 0 **** 0.053
40104 H70 126.293 82.2142 120.08 H 0 **** 0.053
40105 H71 124.048 77.377 122.776 H 0 **** 0.053
40106 H72 125.727 79.8727 119.426 H 0 **** 0.053
40107 H73 126.407 73.0273 118.034 H 0 **** 0.053
40108 H74 124.855 72.2202 117.743 H 0 **** 0.053
40109 H75 125.475 73.6775 115.804 H 0 **** 0.053
40110 H76 124.014 74.308 116.571 H 0 **** 0.053
40111 H77 126.888 75.274 117.13 H 0 **** 0.053
40112 H78 125.696 76.1324 116.163 H 0 **** 0.053
40113 H79 123.4 75.3512 122.459 H 0 **** 0.1268
40114 H80 124.302 71.9338 120.108 H 0 **** 0.1268
40115 H81 122.677 79.4876 127.764 H 0 **** 0.053
40116 H82 121.039 80.0168 127.207 H 0 **** 0.053
40117 H83 122.239 76.7139 123.273 H 0 **** 0.1268
40118 H84 120.842 78.2666 128.814 H 0 **** 0.1268
40119 H85 119.402 74.2693 128.841 H 0 **** 0.1268
40120 H86 120.408 72.5811 124.44 H 0 **** 0.1268
40121 H87 121.463 74.47 123.246 H 0 **** 0.1268
40122 H88 124.456 89.1421 127.003 H 0 **** 0.41
40123 H89 125.319 90.0457 123.808 H 0 **** 0.053
40124 H90 125.698 89.0744 122.383 H 0 **** 0.053
40125 H91 126.887 89.2191 123.708 H 0 **** 0.053
40126 H92 122.294 81.6177 127.61 H 0 **** 0.41
40127 H93 120.47 76.9859 130.967 H 0 **** 0.053
40128 H94 118.815 75.5528 132.171 H 0 **** 0.053
40129 H95 119.9 74.5365 131.2 H 0 **** 0.053
40130 H96 118.235 74.8879 130.634 H 0 **** 0.053
40131 H97 123.119 73.28 123.1 H 0 **** 0.41
40132 H98 125.665 79.118 117.622 H 0 **** 0.41
40133 H99 119.283 72.7565 127.715 H 0 **** 0.41
40134 H100 122.524 77.7483 121.8 H 0 **** 0.053
40135 H101 124.009 79.9152 118.939 H 0 **** 0.053
40136 H102 118.839 77.3194 130.381 H 0 **** 0.053
40137 C1 148.736 70.9384 146.598 C.ar 0 **** 0.042
40138 C2 147.997 72.0273 147.023 C.ar 0 **** -0.1268
40139 C3 148.617 73.1095 147.626 C.ar 0 **** 0
40140 C4 149.998 73.1291 147.822 C.ar 0 **** 0
40141 C5 150.737 72.0288 147.377 C.ar 0 **** -0.1268
40142 C6 150.125 70.935 146.783 C.ar 0 **** 0
40143 C7 150.323 74.3874 148.476 C.ar 0 **** 0
40144 C8 149.143 75.0917 148.643 C.ar 0 **** 0
40145 C9 147.954 74.3559 148.129 C.3 0 **** -0.106
40146 C10 149.161 76.3504 149.233 C.ar 0 **** 0
40147 C11 150.375 76.9249 149.666 C.ar 0 **** 0
40148 C12 151.553 76.1521 149.477 C.ar 0 **** 0
40149 C13 151.534 74.8796 148.895 C.ar 0 **** 0
40150 C14 152.809 74.105 148.717 C.3 0 **** -0.106
40151 C15 153.804 74.4257 149.832 C.3 0 **** -0.106
40152 C16 154.115 75.8957 149.758 C.3 0 **** -0.106
40153 C17 152.879 76.7496 149.946 C.ar 0 **** 0
40154 C18 152.968 77.9901 150.491 C.ar 0 **** 0
40155 C19 151.851 78.7606 150.653 C.ar 0 **** 0
40156 C20 150.414 78.231 150.267 C.ar 0 **** 0
40157 C21 149.138 78.8957 150.467 C.ar 0 **** 0
40158 C22 147.991 78.2619 149.977 C.ar 0 **** 0
40159 C23 147.973 77.0445 149.391 C.ar 0 **** 0.042
40160 C24 151.99 80.1616 151.23 C.3 0 **** -0.106
40161 C25 153.438 80.7168 151.367 C.ar 0 **** 0
40162 C26 154.52 79.884 151.219 C.ar 0 **** 0
40163 C27 154.373 78.4349 150.887 C.3 0 **** -0.106
40164 C28 155.814 80.369 151.394 C.ar 0 **** 0.042
40165 C29 156.065 81.6871 151.734 C.ar 0 **** 0
40166 C30 154.961 82.5154 151.868 C.ar 0 **** 0
40167 C31 153.66 82.0522 151.693 C.ar 0 **** 0
40168 C32 155.112 84.0005 152.236 C.ar 0 **** 0
40169 C33 156.563 84.4536 152.427 C.3 0 **** -0.106
40170 C34 157.464 83.3364 152.949 C.3 0 **** -0.106
40171 C35 157.47 82.2051 151.923 C.3 0 **** -0.106
40172 C36 152.526 83.0433 151.863 C.ar 0 **** -0.1268
40173 C37 152.792 84.3348 152.193 C.ar 0 **** 0.0265
40174 C38 154.032 84.8091 152.377 C.ar 0 **** -0.1268
40175 C39 146.703 78.9785 150.147 C.3 0 **** -0.106
40176 C40 147.236 80.1609 150.89 C.ar 0 **** 0
40177 C41 148.619 80.1216 151.071 C.ar 0 **** 0
40178 C42 149.164 81.1943 151.808 C.ar 0 **** -0.1268
40179 C43 148.367 82.2556 152.285 C.ar 0 **** 0
40180 C44 146.974 82.271 152.064 C.ar 0 **** 0
40181 C45 146.41 81.1943 151.36 C.ar 0 **** 0
40182 C46 145.016 81.1828 151.146 C.ar 0 **** -0.1268
40183 C47 144.191 82.2027 151.59 C.ar 0 **** 0
40184 C48 144.757 83.2398 152.301 C.ar 0 **** -0.1268
40185 C49 146.137 83.3056 152.548 C.ar 0 **** 0
40186 C50 146.72 84.3661 153.264 C.ar 0 **** 0.042
40187 C51 148.081 84.3841 153.489 C.ar 0 **** -0.1268
40188 C52 148.891 83.3526 153.022 C.ar 0 **** -0.1268
40189 O53 148.126 69.8638 145.996 O.3 0 **** -0.452
40190 C54 150.956 69.7536 146.307 C.3 0 **** -0.159
40191 O55 146.806 76.523 148.973 O.3 0 **** -0.452
40192 C56 142.714 82.0467 151.307 C.3 0 **** -0.106
40193 C57 141.871 83.2579 151.709 C.3 0 **** -0.159
40194 O58 151.754 85.1741 152.342 O.3 0 **** -0.4365
40195 O59 156.913 79.568 151.246 O.3 0 **** -0.452
40196 O60 146.031 85.4068 153.771 O.3 0 **** -0.452
40197 H61 146.892 72.0697 146.89 H 0 **** 0.1268
40198 H62 151.831 71.9584 147.456 H 0 **** 0.1268
40199 H63 147.218 74.1043 148.914 H 0 **** 0.053
40200 H64 147.44 74.8713 147.296 H 0 **** 0.053
40201 H65 152.636 73.0331 148.751 H 0 **** 0.053
40202 H66 153.283 74.3494 147.74 H 0 **** 0.053
40203 H67 153.379 74.1422 150.826 H 0 **** 0.053
40204 H68 154.744 73.8105 149.71 H 0 **** 0.053
40205 H69 154.872 76.1238 150.518 H 0 **** 0.053
40206 H70 154.573 76.1115 148.776 H 0 **** 0.053
40207 H71 151.425 80.8601 150.578 H 0 **** 0.053
40208 H72 155.028 78.2165 150.038 H 0 **** 0.053
40209 H73 156.952 84.8161 151.454 H 0 **** 0.053
40210 H74 156.554 85.3159 153.108 H 0 **** 0.053
40211 H75 158.481 83.7169 153.102 H 0 **** 0.053
40212 H76 157.104 82.9761 153.923 H 0 **** 0.053
40213 H77 157.851 82.5702 150.96 H 0 **** 0.053
40214 H78 158.126 81.4046 152.247 H 0 **** 0.053
40215 H79 151.526 82.691 151.702 H 0 **** 0.1268
40216 H80 154.215 85.8416 152.63 H 0 **** 0.1268
40217 H81 146.247 79.2845 149.192 H 0 **** 0.053
40218 H82 145.973 78.4262 150.76 H 0 **** 0.053
40219 H83 150.202 81.2905 152.089 H 0 **** 0.1268
40220 H84 144.554 80.3381 150.6 H 0 **** 0.1268
40221 H85 144.101 84.0242 152.671 H 0 **** 0.1268
40222 H86 148.559 85.2039 154.048 H 0 **** 0.1268
40223 H87 149.995 83.3597 153.244 H 0 **** 0.1268
40224 H88 147.195 70.0371 145.96 H 0 **** 0.41
40225 H89 150.398 68.8156 146.409 H 0 **** 0.053
40226 H90 151.881 69.6401 146.89 H 0 **** 0.053
40227 H91 151.226 69.8724 145.245 H 0 **** 0.053
40228 H92 146.091 77.1176 149.154 H 0 **** 0.41
40229 H93 142.544 81.826 150.252 H 0 **** 0.053
40230 H94 140.798 83.1077 151.478 H 0 **** 0.053
40231 H95 142.191 84.1668 151.163 H 0 **** 0.053
40232 H96 141.936 83.4686 152.793 H 0 **** 0.053
40233 H97 150.943 84.7612 152.093 H 0 **** 0.41
40234 H98 156.649 78.6887 151.029 H 0 **** 0.41
40235 H99 145.11 85.3106 153.561 H 0 **** 0.41
40236 H100 151.585 80.116 152.261 H 0 **** 0.053
40237 H101 154.684 77.8317 151.748 H 0 **** 0.053
40238 H102 142.409 81.1745 151.884 H 0 **** 0.053
40239 C1 163.507 44.5081 119.849 C.ar 0 **** 0.042
40240 C2 164.029 43.4187 119.177 C.ar 0 **** -0.1268
40241 C3 165.383 43.1299 119.243 C.ar 0 **** 0
40242 C4 166.252 43.9292 119.987 C.ar 0 **** 0
40243 C5 165.712 45.0205 120.673 C.ar 0 **** -0.1268
40244 C6 164.36 45.3253 120.603 C.ar 0 **** 0
40245 C7 167.585 43.3637 119.844 C.ar 0 **** 0
40246 C8 167.483 42.2424 119.04 C.ar 0 **** 0
40247 C9 166.089 41.9875 118.579 C.3 0 **** -0.106
40248 C10 168.614 41.4887 118.748 C.ar 0 **** 0
40249 C11 169.875 41.8529 119.267 C.ar 0 **** 0
40250 C12 169.921 43.0185 120.08 C.ar 0 **** 0
40251 C13 168.785 43.7846 120.362 C.ar 0 **** 0
40252 C14 168.888 45.0074 121.23 C.3 0 **** -0.106
40253 C15 170.249 45.6828 121.062 C.3 0 **** -0.106
40254 C16 171.303 44.6967 121.487 C.3 0 **** -0.106
40255 C17 171.277 43.4377 120.646 C.ar 0 **** 0
40256 C18 172.41 42.7207 120.433 C.ar 0 **** 0
40257 C19 172.38 41.5808 119.679 C.ar 0 **** 0
40258 C20 171.053 41.0774 118.986 C.ar 0 **** 0
40259 C21 170.892 39.9453 118.09 C.ar 0 **** 0
40260 C22 169.599 39.6433 117.652 C.ar 0 **** 0
40261 C23 168.495 40.3665 117.945 C.ar 0 **** 0.042
40262 C24 173.66 40.7791 119.492 C.3 0 **** -0.106
40263 C25 174.87 41.1829 120.384 C.ar 0 **** 0
40264 C26 174.849 42.3561 121.097 C.ar 0 **** 0
40265 C27 173.671 43.2752 121.088 C.3 0 **** -0.106
40266 C28 175.953 42.7439 121.853 C.ar 0 **** 0.042
40267 C29 177.109 41.9845 121.907 C.ar 0 **** 0
40268 C30 177.108 40.798 121.19 C.ar 0 **** 0
40269 C31 176.014 40.3897 120.432 C.ar 0 **** 0
40270 C32 178.33 39.8657 121.179 C.ar 0 **** 0
40271 C33 179.509 40.3681 122.019 C.3 0 **** -0.106
40272 C34 179.582 41.8924 122.077 C.3 0 **** -0.106
40273 C35 178.302 42.4116 122.728 C.3 0 **** -0.106
40274 C36 176.119 39.0747 119.687 C.ar 0 **** -0.1268
40275 C37 177.261 38.34 119.756 C.ar 0 **** 0.0265
40276 C38 178.334 38.7098 120.469 C.ar 0 **** -0.1268
40277 C39 169.447 38.4549 116.777 C.3 0 **** -0.106
40278 C40 170.893 38.087 116.693 C.ar 0 **** 0
40279 C41 171.719 38.9294 117.439 C.ar 0 **** 0
40280 C42 173.099 38.6538 117.354 C.ar 0 **** -0.1268
40281 C43 173.599 37.5704 116.602 C.ar 0 **** 0
40282 C44 172.73 36.7283 115.876 C.ar 0 **** 0
40283 C45 171.354 37.0079 115.922 C.ar 0 **** 0
40284 C46 170.471 36.1976 115.177 C.ar 0 **** -0.1268
40285 C47 170.907 35.1324 114.404 C.ar 0 **** 0
40286 C48 172.265 34.8766 114.369 C.ar 0 **** -0.1268
40287 C49 173.194 35.6484 115.087 C.ar 0 **** 0
40288 C50 174.577 35.3965 115.043 C.ar 0 **** 0.042
40289 C51 175.454 36.1968 115.749 C.ar 0 **** -0.1268
40290 C52 174.985 37.2668 116.507 C.ar 0 **** -0.1268
40291 O53 162.165 44.7972 119.789 O.3 0 **** -0.452
40292 C54 163.801 46.5177 121.364 C.3 0 **** -0.159
40293 O55 167.302 39.9912 117.453 O.3 0 **** -0.452
40294 C56 169.839 34.351 113.646 C.3 0 **** -0.106
40295 C57 170.39 33.0931 112.966 C.3 0 **** -0.159
40296 O58 177.311 37.1858 119.071 O.3 0 **** -0.4365
40297 O59 175.962 43.9028 122.58 O.3 0 **** -0.452
40298 O60 175.147 34.4016 114.335 O.3 0 **** -0.452
40299 H61 163.383 42.7429 118.571 H 0 **** 0.1268
40300 H62 166.303 45.6924 121.31 H 0 **** 0.1268
40301 H63 165.968 42.0527 117.482 H 0 **** 0.053
40302 H64 165.673 41.0279 118.937 H 0 **** 0.053
40303 H65 168.137 45.7484 120.971 H 0 **** 0.053
40304 H66 168.756 44.7398 122.302 H 0 **** 0.053
40305 H67 170.393 46.0126 120.005 H 0 **** 0.053
40306 H68 170.302 46.621 121.69 H 0 **** 0.053
40307 H69 172.279 45.1923 121.425 H 0 **** 0.053
40308 H70 171.142 44.4411 122.549 H 0 **** 0.053
40309 H71 173.432 39.7128 119.701 H 0 **** 0.053
40310 H72 173.417 43.5052 122.128 H 0 **** 0.053
40311 H73 179.407 39.9653 123.048 H 0 **** 0.053
40312 H74 180.426 39.9359 121.597 H 0 **** 0.053
40313 H75 180.459 42.203 122.659 H 0 **** 0.053
40314 H76 179.701 42.3092 121.067 H 0 **** 0.053
40315 H77 178.203 42.0056 123.744 H 0 **** 0.053
40316 H78 178.333 43.492 122.814 H 0 **** 0.053
40317 H79 175.265 38.7484 119.125 H 0 **** 0.1268
40318 H80 179.224 38.1028 120.513 H 0 **** 0.1268
40319 H81 168.861 37.6453 117.24 H 0 **** 0.053
40320 H82 169.046 38.6963 115.779 H 0 **** 0.053
40321 H83 173.879 39.2395 117.819 H 0 **** 0.1268
40322 H84 169.386 36.4091 115.202 H 0 **** 0.1268
40323 H85 172.613 34.0465 113.759 H 0 **** 0.1268
40324 H86 176.542 36.0209 115.727 H 0 **** 0.1268
40325 H87 175.712 37.9361 117.048 H 0 **** 0.1268
40326 H88 161.748 44.1461 119.24 H 0 **** 0.41
40327 H89 162.964 46.9709 120.82 H 0 **** 0.053
40328 H90 164.554 47.305 121.506 H 0 **** 0.053
40329 H91 163.431 46.2065 122.354 H 0 **** 0.053
40330 H92 167.393 39.2137 116.919 H 0 **** 0.41
40331 H93 169.042 34.0533 114.335 H 0 **** 0.053
40332 H94 169.591 32.5423 112.432 H 0 **** 0.053
40333 H95 170.835 32.3931 113.698 H 0 **** 0.053
40334 H96 171.164 33.3395 112.214 H 0 **** 0.053
40335 H97 176.473 36.9784 118.689 H 0 **** 0.41
40336 H98 175.143 44.3591 122.475 H 0 **** 0.41
40337 H99 174.472 33.9098 113.885 H 0 **** 0.41
40338 H100 173.985 40.9491 118.445 H 0 **** 0.053
40339 H101 173.938 44.2025 120.568 H 0 **** 0.053
40340 H102 169.386 34.9943 112.883 H 0 **** 0.053
40341 C 109.814 30.2405 176.004 C.3 0 **** 0.054
40342 C 110.772 29.5763 174.973 C.3 0 **** -0.106
40343 C 112.244 30.0092 175.217 C.3 0 **** -0.053
40344 C 112.257 31.5127 175.585 C.3 0 **** -0.053
40345 C 111.373 31.7628 176.843 C.3 0 **** 0.054
40346 O 110.526 30.6654 177.155 O.3 0 **** -0.32
40347 C 111.793 32.3832 174.38 C.3 0 **** -0.053
40348 C 112.293 31.8184 172.995 C.3 0 **** 0.107
40349 C 113.514 30.9274 173.192 C.3 0 **** -0.106
40350 C 113.187 29.6814 174.032 C.3 0 **** -0.106
40351 O 112.657 32.8263 172.046 O.3 0 **** -0.32
40352 C 111.717 33.889 172.059 C.3 0 **** 0.107
40353 C 112 34.7375 173.327 C.3 0 **** -0.053
40354 C 112.242 33.8459 174.572 C.3 0 **** -0.106
40355 C 110.981 35.8077 173.624 C.2 0 **** 0
40356 C 109.542 35.4737 173.255 C.3 0 **** 0
40357 C 109.359 34.6201 172.001 C.3 0 **** 0
40358 C 110.279 33.4137 171.859 C.3 0 **** -0.053
40359 C 107.917 34.2915 171.671 C.3 0 **** 0
40360 C 107.078 35.5623 171.59 C.3 0 **** 0
40361 C 107.236 36.3549 172.941 C.3 0 **** 0.16
40362 C 108.674 36.7157 173.243 C.3 0 **** 0
40363 C 108.836 37.6398 174.481 C.3 0 **** -0.106
40364 C 110.268 38.1422 174.384 C.3 0 **** -0.106
40365 C 111.275 37.0226 174.145 C.2 0 **** -0.1268
40366 O 106.313 37.4184 173.263 O.3 0 **** -0.32
40367 C 105.382 37.6531 172.228 C.3 0 **** 0.16
40368 C 104.665 36.393 171.639 C.3 0 **** 0
40369 C 105.596 35.1984 171.311 C.3 0 **** 0
40370 C 110.025 32.7534 170.528 C.2 0 **** 0
40371 C 108.656 32.1362 170.462 C.3 0 **** -0.053
40372 C 107.722 33.3802 170.447 C.3 0 **** 0
40373 C 108.322 31.3057 169.243 C.2 0 **** 0
40374 C 109.108 31.4425 168.143 C.2 0 **** 0
40375 C 110.399 32.2476 168.122 C.3 0 **** -0.106
40376 C 110.823 32.8112 169.469 C.2 0 **** -0.1268
40377 C 108.852 30.6224 166.9 C.3 0 **** -0.106
40378 C 107.353 30.4179 166.732 C.3 0 **** -0.106
40379 C 106.76 29.9707 168.057 C.2 0 **** 0
40380 C 107.275 30.4188 169.247 C.2 0 **** 0
40381 C 106.619 29.9964 170.548 C.3 0 **** -0.106
40382 C 105.706 28.7863 170.41 C.3 0 **** -0.053
40383 C 104.731 29.0125 169.243 C.3 0 **** -0.106
40384 C 105.516 29.1169 167.931 C.3 0 **** -0.106
40385 C 105.485 34.4376 169.983 C.3 0 **** 0.147
40386 C 106.229 33.1164 170.113 C.3 0 **** -0.053
40387 C 103.608 36.6944 170.571 C.3 0 **** 0
40388 C 102.907 35.4831 169.942 C.3 0 **** 0.147
40389 S 103.816 34.0674 169.37 S.3 0 **** -0.294
40390 C 101.789 35.817 168.993 C.3 0 **** -0.053
40391 C 100.796 36.7454 169.705 C.3 0 **** 0
40392 C 101.497 38.0477 170.253 C.3 0 **** 0
40393 C 102.603 37.6632 171.256 C.3 0 **** 0
40394 C 100.449 38.9164 170.935 C.3 0 **** 0
40395 C 99.3707 39.2844 169.936 C.3 0 **** 0
40396 C 98.6502 38.0251 169.295 C.3 0 **** 0
40397 C 99.7315 37.1037 168.621 C.3 0 **** -0.053
40398 C 97.6718 38.5561 168.21 C.3 0 **** 0
40399 C 96.566 39.2899 168.937 C.3 0 **** 0.16
40400 C 97.0835 40.427 169.823 C.3 0 **** 0
40401 C 98.4654 40.3882 170.408 C.3 0 **** 0
40402 C 103.274 38.8727 171.961 C.3 0 **** 0
40403 C 104.352 38.473 172.963 C.3 0 **** -0.053
40404 C 100.952 40.0373 171.871 C.3 0 **** 0
40405 C 102.438 40.1551 172.221 C.3 0 **** 0
40406 C 98.7569 41.1904 171.677 C.3 0 **** 0
40407 C 100.275 41.4094 171.821 C.3 0 **** 0
40408 C 96.2224 41.6633 170.084 C.3 0 **** 0
40409 C 96.6212 42.3885 171.408 C.3 0 **** 0
40410 C 98.135 42.6078 171.585 C.3 0 **** 0
40411 O 95.5751 39.6426 167.996 O.3 0 **** -0.32
40412 C 94.7606 38.4716 167.958 C.3 0 **** 0.107
40413 C 95.6338 37.2122 167.652 C.3 0 **** -0.053
40414 C 97.0141 37.6354 167.154 C.3 0 **** 0.107
40415 C 94.9365 36.306 166.627 C.3 0 **** -0.106
40416 C 93.4253 36.2488 166.917 C.3 0 **** -0.106
40417 C 92.7655 37.6039 166.6 C.3 0 **** 0.134
40418 C 93.7133 38.7928 166.913 C.3 0 **** -0.053
40419 C 92.9374 40.0703 167.319 C.3 0 **** -0.106
40420 C 91.6347 40.1543 166.534 C.3 0 **** -0.106
40421 C 90.741 38.9077 166.814 C.3 0 **** 0.081
40422 N 91.4821 37.7295 167.261 N.3 0 **** -0.727
40423 C 102.685 40.9819 173.511 C.3 0 **** 0.16
40424 C 102.053 42.3547 173.345 C.3 0 **** 0.16
40425 C 100.57 42.1717 173.191 C.3 0 **** 0
40426 O 102.319 43.2604 174.394 O.3 0 **** -0.32
40427 C 103.716 43.281 174.667 C.3 0 **** 0.107
40428 C 104.163 41.9011 175.042 C.3 0 **** 0.107
40429 O 104.051 41.0949 173.881 O.3 0 **** -0.32
40430 C 103.347 41.3191 176.225 C.3 0 **** -0.106
40431 C 102.806 42.4382 177.161 C.3 0 **** -0.106
40432 C 103.777 43.6354 177.172 C.3 0 **** -0.106
40433 C 103.913 44.2915 175.769 C.3 0 **** -0.106
40434 C 98.4078 43.4261 172.925 C.3 0 **** 0
40435 C 99.9506 43.6044 173.094 C.3 0 **** -0.053
40436 C 95.9617 43.7775 171.42 C.3 0 **** 0
40437 C 96.3206 44.5889 172.681 C.3 0 **** 0.16
40438 C 97.7672 44.8018 172.896 C.3 0 **** -0.053
40439 C 94.407 43.5144 171.33 C.3 0 **** 0
40440 C 94.0536 42.7306 170.001 C.3 0 **** 0
40441 C 94.7027 41.3433 170.123 C.3 0 **** -0.053
40442 O 95.6834 45.8169 172.813 O.3 0 **** -0.32
40443 C 94.2965 45.6557 172.538 C.3 0 **** 0.16
40444 C 93.8788 44.9383 171.186 C.3 0 **** 0
40445 C 92.5353 42.5826 169.703 C.3 0 **** -0.053
40446 C 91.8581 43.944 169.846 C.3 0 **** -0.053
40447 C 92.3559 44.7919 171.076 C.3 0 **** 0
40448 C 90.4056 43.7733 170.134 C.3 0 **** -0.053
40449 C 89.8292 42.6406 169.326 C.3 0 **** -0.106
40450 C 90.4153 41.305 169.867 C.3 0 **** -0.106
40451 C 91.7931 41.5109 170.53 C.3 0 **** -0.106
40452 C 91.7809 46.1862 170.995 C.3 0 **** 0
40453 C 92.2486 47.1161 172.153 C.3 0 **** 0
40454 C 93.7109 47.0401 172.585 C.3 0 **** 0
40455 C 89.8355 45.1406 169.765 C.3 0 **** 0
40456 C 90.2784 46.1711 170.82 C.3 0 **** 0
40457 C 105.015 28.4288 171.752 C.3 0 **** -0.053
40458 C 103.897 29.4095 172.134 C.3 0 **** -0.159
40459 C 104.476 26.9938 171.736 C.3 0 **** -0.159
40460 O 97.781 36.5027 166.769 O.3 0 **** -0.57
40461 C 94.4082 48.1922 173.362 C.3 0 **** -0.053
40462 C 93.4775 49.2644 173.937 C.3 0 **** -0.053
40463 C 92.3816 49.6205 172.916 C.3 0 **** 0
40464 C 91.5119 48.4035 172.473 C.3 0 **** 0
40465 C 90.2731 48.603 171.618 C.3 0 **** 0
40466 C 89.6329 49.9595 171.657 C.3 0 **** 0
40467 C 90.2471 51.0098 172.616 C.3 0 **** 0
40468 C 91.4715 50.7005 173.511 C.3 0 **** -0.053
40469 C 89.4995 52.3157 172.848 C.3 0 **** -0.053
40470 C 88.0668 52.446 172.286 C.3 0 **** -0.053
40471 C 87.6354 51.4659 171.152 C.3 0 **** 0
40472 C 88.1121 50.0059 171.369 C.3 0 **** 0
40473 C 87.7475 49.0769 170.146 C.3 0 **** 0
40474 C 88.2487 47.6064 170.408 C.3 0 **** 0
40475 C 89.7811 47.5854 170.582 C.3 0 **** 0
40476 C 86.2002 49.1034 169.935 C.3 0 **** 0
40477 C 85.7537 50.5929 169.689 C.3 0 **** -0.053
40478 C 86.1219 51.5075 170.874 C.3 0 **** -0.053
40479 C 88.3037 45.1716 169.585 C.3 0 **** -0.053
40480 C 87.9262 46.6675 169.177 C.3 0 **** 0
40481 C 85.8169 48.1936 168.68 C.3 0 **** 0.02
40482 C 86.3905 46.7399 168.824 C.3 0 **** 0
40483 C 86.0235 45.6898 167.749 C.3 0 **** -0.106
40484 C 85.1005 46.3066 166.736 C.3 0 **** -0.106
40485 C 83.9487 47.016 167.439 C.3 0 **** -0.086
40486 C 84.3217 48.0923 168.391 C.2 0 **** 0.379
40487 O 83.471 48.857 168.812 O.2 0 **** -0.419
40488 H 109.053 29.5278 176.349 H 0 **** 0.053
40489 H 109.269 31.0794 175.545 H 0 **** 0.053
40490 H 110.714 28.4708 175.014 H 0 **** 0.053
40491 H 110.461 29.8409 173.946 H 0 **** 0.053
40492 H 112.589 29.4565 176.106 H 0 **** 0.053
40493 H 113.303 31.8018 175.799 H 0 **** 0.053
40494 H 110.778 32.6866 176.735 H 0 **** 0.053
40495 H 112.006 31.9059 177.725 H 0 **** 0.053
40496 H 110.69 32.3737 174.402 H 0 **** 0.053
40497 H 111.503 31.1841 172.553 H 0 **** 0.053
40498 H 114.297 31.5366 173.682 H 0 **** 0.053
40499 H 113.912 30.6497 172.204 H 0 **** 0.053
40500 H 114.121 29.2377 174.402 H 0 **** 0.053
40501 H 112.719 28.9259 173.385 H 0 **** 0.053
40502 H 111.975 34.5327 171.216 H 0 **** 0.053
40503 H 112.937 35.2729 173.138 H 0 **** 0.053
40504 H 111.79 34.2595 175.501 H 0 **** 0.053
40505 H 113.331 33.8232 174.75 H 0 **** 0.053
40506 H 109.981 32.6822 172.625 H 0 **** 0.053
40507 H 108.112 38.477 174.426 H 0 **** 0.053
40508 H 108.629 37.0917 175.424 H 0 **** 0.053
40509 H 110.538 38.7222 175.27 H 0 **** 0.053
40510 H 110.325 38.8231 173.515 H 0 **** 0.053
40511 H 112.29 37.2669 174.442 H 0 **** 0.1268
40512 H 108.475 31.555 171.398 H 0 **** 0.053
40513 H 110.319 33.091 167.373 H 0 **** 0.053
40514 H 111.232 31.5851 167.752 H 0 **** 0.053
40515 H 111.798 33.2883 169.504 H 0 **** 0.1268
40516 H 109.301 31.0941 165.999 H 0 **** 0.053
40517 H 109.355 29.6481 167.037 H 0 **** 0.053
40518 H 107.137 29.6901 165.925 H 0 **** 0.053
40519 H 106.876 31.3714 166.436 H 0 **** 0.053
40520 H 107.408 29.7487 171.274 H 0 **** 0.053
40521 H 106.049 30.8363 170.991 H 0 **** 0.053
40522 H 106.351 27.924 170.143 H 0 **** 0.053
40523 H 104.17 29.9456 169.411 H 0 **** 0.053
40524 H 103.989 28.2049 169.168 H 0 **** 0.053
40525 H 104.854 29.5069 167.123 H 0 **** 0.053
40526 H 105.828 28.0965 167.613 H 0 **** 0.053
40527 H 106.086 32.5144 169.151 H 0 **** 0.053
40528 H 101.267 34.9329 168.518 H 0 **** 0.053
40529 H 99.244 36.117 168.337 H 0 **** 0.053
40530 H 104.893 39.3418 173.441 H 0 **** 0.053
40531 H 94.268 38.3589 168.939 H 0 **** 0.053
40532 H 95.7466 36.61 168.577 H 0 **** 0.053
40533 H 96.879 38.2781 166.295 H 0 **** 0.053
40534 H 95.1001 36.7091 165.604 H 0 **** 0.053
40535 H 95.3984 35.2921 166.639 H 0 **** 0.053
40536 H 93.3042 36.0068 167.985 H 0 **** 0.053
40537 H 92.9308 35.444 166.35 H 0 **** 0.053
40538 H 92.5766 37.6231 165.514 H 0 **** 0.053
40539 H 94.2909 39.0241 165.994 H 0 **** 0.053
40540 H 92.6779 39.9874 168.384 H 0 **** 0.053
40541 H 93.5679 40.9684 167.194 H 0 **** 0.053
40542 H 91.8962 40.2112 165.461 H 0 **** 0.053
40543 H 91.0883 41.0859 166.76 H 0 **** 0.053
40544 H 90.1886 38.6411 165.899 H 0 **** 0.053
40545 H 89.9707 39.1522 167.566 H 0 **** 0.053
40546 H 91.6297 37.7673 168.25 H 0 **** 0.353
40547 H 104.226 43.573 173.75 H 0 **** 0.053
40548 H 105.211 41.9234 175.329 H 0 **** 0.053
40549 H 102.484 40.7134 175.877 H 0 **** 0.053
40550 H 103.96 40.6072 176.818 H 0 **** 0.053
40551 H 102.64 42.0489 178.186 H 0 **** 0.053
40552 H 101.813 42.777 176.802 H 0 **** 0.053
40553 H 104.768 43.2576 177.481 H 0 **** 0.053
40554 H 103.47 44.3878 177.921 H 0 **** 0.053
40555 H 104.873 44.8339 175.689 H 0 **** 0.053
40556 H 103.11 45.0545 175.648 H 0 **** 0.053
40557 H 100.14 44.1943 174.056 H 0 **** 0.053
40558 H 98.03 45.3833 173.804 H 0 **** 0.053
40559 H 94.3821 40.7484 169.222 H 0 **** 0.053
40560 H 92.5007 42.277 168.666 H 0 **** 0.053
40561 H 92.0359 44.516 168.915 H 0 **** 0.053
40562 H 90.2119 43.5715 171.209 H 0 **** 0.053
40563 H 90.109 42.7873 168.266 H 0 **** 0.053
40564 H 88.7195 42.5807 169.358 H 0 **** 0.053
40565 H 90.5185 40.5785 169.037 H 0 **** 0.053
40566 H 89.7058 40.8496 170.585 H 0 **** 0.053
40567 H 92.339 40.5512 170.577 H 0 **** 0.053
40568 H 91.6837 41.861 171.565 H 0 **** 0.053
40569 H 105.79 28.4764 172.541 H 0 **** 0.053
40570 H 103.513 29.1911 173.143 H 0 **** 0.053
40571 H 103.052 29.3338 171.43 H 0 **** 0.053
40572 H 104.24 30.4568 172.131 H 0 **** 0.053
40573 H 105.277 26.2689 171.519 H 0 **** 0.053
40574 H 103.697 26.8739 170.966 H 0 **** 0.053
40575 H 104.035 26.7247 172.708 H 0 **** 0.053
40576 H 98.6207 36.8494 166.473 H 0 **** 0.41
40577 H 95.3142 47.9084 173.968 H 0 **** 0.053
40578 H 94.0528 50.166 174.287 H 0 **** 0.053
40579 H 92.0139 51.6259 173.848 H 0 **** 0.053
40580 H 89.9625 53.118 173.477 H 0 **** 0.053
40581 H 87.6268 53.4743 172.276 H 0 **** 0.053
40582 H 84.6559 50.6854 169.471 H 0 **** 0.053
40583 H 85.7603 52.5547 170.752 H 0 **** 0.053
40584 H 87.9666 44.4413 168.764 H 0 **** 0.053
40585 H 86.9249 45.2731 167.266 H 0 **** 0.053
40586 H 85.5481 44.8922 168.318 H 0 **** 0.053
40587 H 84.7151 45.5392 166.067 H 0 **** 0.053
40588 H 85.6728 47.0223 166.112 H 0 **** 0.053
40589 H 83.3815 46.3211 168.063 H 0 **** 0.053
40590 H 83.2645 47.5513 166.784 H 0 **** 0.053
40591 C 192.79 68.2 139.242 C.3 0 **** 0.054
40592 C 193.12 68.4315 140.745 C.3 0 **** -0.106
40593 C 193.851 67.2023 141.353 C.3 0 **** -0.053
40594 C 193.201 65.9172 140.785 C.3 0 **** -0.053
40595 C 193.285 65.9187 139.229 C.3 0 **** 0.054
40596 O 193.619 67.1903 138.692 O.3 0 **** -0.32
40597 C 191.731 65.7738 141.277 C.3 0 **** -0.053
40598 C 191.537 66.2677 142.762 C.3 0 **** 0.107
40599 C 192.864 66.2401 143.51 C.3 0 **** -0.106
40600 C 193.888 67.2123 142.902 C.3 0 **** -0.106
40601 O 190.607 65.4898 143.524 O.3 0 **** -0.32
40602 C 189.463 65.1737 142.746 C.3 0 **** 0.107
40603 C 189.872 64.0417 141.766 C.3 0 **** -0.053
40604 C 191.251 64.3174 141.114 C.3 0 **** -0.106
40605 C 188.843 63.6968 140.72 C.2 0 **** 0
40606 C 188.002 64.8584 140.21 C.3 0 **** 0
40607 C 187.661 65.935 141.24 C.3 0 **** 0
40608 C 188.802 66.4065 142.133 C.3 0 **** -0.053
40609 C 186.837 67.0852 140.696 C.3 0 **** 0
40610 C 185.576 66.5698 140.012 C.3 0 **** 0
40611 C 185.994 65.5328 138.903 C.3 0 **** 0.16
40612 C 186.78 64.3663 139.46 C.3 0 **** 0
40613 C 187.058 63.2502 138.417 C.3 0 **** -0.106
40614 C 187.527 62.069 139.253 C.3 0 **** -0.106
40615 C 188.611 62.4454 140.258 C.2 0 **** -0.1268
40616 O 185.038 65.1342 137.896 O.3 0 **** -0.32
40617 C 183.769 65.7173 138.098 C.3 0 **** 0.16
40618 C 183.747 67.2583 138.37 C.3 0 **** 0
40619 C 184.778 67.7582 139.413 C.3 0 **** 0
40620 C 188.265 67.3876 143.143 C.2 0 **** 0
40621 C 187.803 68.6624 142.494 C.3 0 **** -0.053
40622 C 186.541 68.2063 141.707 C.3 0 **** 0
40623 C 187.384 69.7973 143.402 C.2 0 **** 0
40624 C 187.112 69.5069 144.701 C.2 0 **** 0
40625 C 187.37 68.1476 145.335 C.3 0 **** -0.106
40626 C 188.07 67.1435 144.433 C.2 0 **** -0.1268
40627 C 186.717 70.5949 145.673 C.3 0 **** -0.106
40628 C 185.884 71.6398 144.946 C.3 0 **** -0.106
40629 C 186.576 72.0141 143.647 C.2 0 **** 0
40630 C 187.303 71.0873 142.943 C.2 0 **** 0
40631 C 187.931 71.4835 141.62 C.3 0 **** -0.106
40632 C 188.031 72.9881 141.414 C.3 0 **** -0.053
40633 C 186.664 73.6343 141.695 C.3 0 **** -0.106
40634 C 186.287 73.4201 143.165 C.3 0 **** -0.106
40635 C 184.383 68.7374 140.526 C.3 0 **** 0.147
40636 C 185.648 69.3346 141.124 C.3 0 **** -0.053
40637 C 182.347 67.8676 138.51 C.3 0 **** 0
40638 C 182.283 69.3699 138.813 C.3 0 **** 0.147
40639 S 183.287 70.115 140.075 S.3 0 **** -0.294
40640 C 180.9 69.9589 138.818 C.3 0 **** -0.053
40641 C 180.21 69.6138 137.491 C.3 0 **** 0
40642 C 180.174 68.0586 137.233 C.3 0 **** 0
40643 C 181.612 67.5028 137.189 C.3 0 **** 0
40644 C 179.471 67.7984 135.909 C.3 0 **** 0
40645 C 178.061 68.3504 135.969 C.3 0 **** 0
40646 C 178.006 69.9052 136.279 C.3 0 **** 0
40647 C 178.763 70.1861 137.628 C.3 0 **** -0.053
40648 C 176.508 70.2919 136.435 C.3 0 **** 0
40649 C 175.876 70.1609 135.067 C.3 0 **** 0.16
40650 C 176.028 68.7593 134.468 C.3 0 **** 0
40651 C 177.18 67.8737 134.847 C.3 0 **** 0
40652 C 181.704 66.0008 136.809 C.3 0 **** 0
40653 C 183.135 65.4731 136.753 C.3 0 **** -0.053
40654 C 179.653 66.4059 135.266 C.3 0 **** 0
40655 C 180.636 65.394 135.86 C.3 0 **** 0
40656 C 177.62 66.774 133.881 C.3 0 **** 0
40657 C 178.443 65.7123 134.634 C.3 0 **** 0
40658 C 174.973 68.2027 133.512 C.3 0 **** 0
40659 C 175.552 67.0903 132.581 C.3 0 **** 0
40660 C 176.391 66.0229 133.307 C.3 0 **** 0
40661 O 174.558 70.6618 135.137 O.3 0 **** -0.32
40662 C 174.75 72.0565 134.905 C.3 0 **** 0.107
40663 C 175.8 72.6351 135.908 C.3 0 **** -0.053
40664 C 176.051 71.6413 137.04 C.3 0 **** 0.107
40665 C 175.33 73.988 136.463 C.3 0 **** -0.106
40666 C 174.67 74.815 135.344 C.3 0 **** -0.106
40667 C 173.324 74.1881 134.935 C.3 0 **** 0.134
40668 C 173.358 72.639 135.029 C.3 0 **** -0.053
40669 C 172.412 71.9676 134.003 C.3 0 **** -0.106
40670 C 171.163 72.82 133.818 C.3 0 **** -0.106
40671 C 171.539 74.2438 133.305 C.3 0 **** 0.081
40672 N 172.904 74.6541 133.628 N.3 0 **** -0.727
40673 C 181.05 64.2944 134.845 C.3 0 **** 0.16
40674 C 179.797 63.6024 134.332 C.3 0 **** 0.16
40675 C 178.968 64.618 133.599 C.3 0 **** 0
40676 O 180.035 62.4866 133.501 O.3 0 **** -0.32
40677 C 180.979 61.6196 134.12 C.3 0 **** 0.107
40678 C 182.251 62.3726 134.362 C.3 0 **** 0.107
40679 O 181.978 63.349 135.353 O.3 0 **** -0.32
40680 C 182.813 63.0119 133.066 C.3 0 **** -0.106
40681 C 182.401 62.2087 131.799 C.3 0 **** -0.106
40682 C 182.268 60.7112 132.141 C.3 0 **** -0.106
40683 C 181.148 60.4477 133.186 C.3 0 **** -0.106
40684 C 176.853 64.904 132.27 C.3 0 **** 0
40685 C 177.728 63.8548 133.028 C.3 0 **** -0.053
40686 C 174.378 66.3586 131.91 C.3 0 **** 0
40687 C 174.847 65.2154 130.987 C.3 0 **** 0.16
40688 C 175.674 64.1819 131.645 C.3 0 **** -0.053
40689 C 173.591 67.463 131.099 C.3 0 **** 0
40690 C 173.07 68.5975 132.073 C.3 0 **** 0
40691 C 174.315 69.3019 132.633 C.3 0 **** -0.053
40692 O 173.849 64.57 130.267 O.3 0 **** -0.32
40693 C 172.991 65.5432 129.682 C.3 0 **** 0.16
40694 C 172.381 66.6666 130.621 C.3 0 **** 0
40695 C 172.116 69.6395 131.424 C.3 0 **** -0.053
40696 C 171.025 68.9083 130.645 C.3 0 **** -0.053
40697 C 171.534 67.6654 129.823 C.3 0 **** 0
40698 C 170.462 69.7928 129.585 C.3 0 **** -0.053
40699 C 170.32 71.2055 130.087 C.3 0 **** -0.106
40700 C 171.743 71.8053 130.274 C.3 0 **** -0.106
40701 C 172.795 70.7102 130.544 C.3 0 **** -0.106
40702 C 170.351 66.904 129.274 C.3 0 **** 0
40703 C 170.753 65.6299 128.474 C.3 0 **** 0
40704 C 171.883 64.7652 129.028 C.3 0 **** 0
40705 C 169.131 69.1179 129.267 C.3 0 **** 0
40706 C 169.401 67.8027 128.513 C.3 0 **** 0
40707 C 188.626 73.3422 140.027 C.3 0 **** -0.053
40708 C 187.643 73.1041 138.871 C.3 0 **** -0.159
40709 C 189.14 74.7861 139.993 C.3 0 **** -0.159
40710 O 176.921 72.1981 138.017 O.3 0 **** -0.57
40711 C 172.066 63.2763 128.619 C.3 0 **** -0.053
40712 C 171.249 62.8146 127.408 C.3 0 **** -0.053
40713 C 169.823 63.3908 127.477 C.3 0 **** 0
40714 C 169.774 64.9491 127.536 C.3 0 **** 0
40715 C 168.453 65.6907 127.422 C.3 0 **** 0
40716 C 167.326 64.9673 126.746 C.3 0 **** 0
40717 C 167.626 63.5625 126.166 C.3 0 **** 0
40718 C 169.024 62.9068 126.262 C.3 0 **** -0.053
40719 C 166.578 62.894 125.287 C.3 0 **** -0.053
40720 C 165.359 63.7304 124.84 C.3 0 **** -0.053
40721 C 165.019 65.0176 125.654 C.3 0 **** 0
40722 C 166.264 65.8542 126.051 C.3 0 **** 0
40723 C 165.882 67.0847 126.963 C.3 0 **** 0
40724 C 167.172 67.9054 127.343 C.3 0 **** 0
40725 C 168.159 67.0186 128.128 C.3 0 **** 0
40726 C 164.861 67.9846 126.197 C.3 0 **** 0
40727 C 163.6 67.1142 125.833 C.3 0 **** -0.053
40728 C 163.97 65.9022 124.956 C.3 0 **** -0.053
40729 C 168.134 69.998 128.485 C.3 0 **** -0.053
40730 C 166.815 69.1221 128.288 C.3 0 **** 0
40731 C 164.439 69.2177 127.118 C.3 0 **** 0.02
40732 C 165.692 70.0124 127.629 C.3 0 **** 0
40733 C 165.464 71.3052 128.448 C.3 0 **** -0.106
40734 C 163.991 71.5758 128.565 C.3 0 **** -0.106
40735 C 163.332 71.4956 127.192 C.3 0 **** -0.086
40736 C 163.476 70.2078 126.468 C.2 0 **** 0.379
40737 O 162.794 69.9815 125.483 O.2 0 **** -0.419
40738 H 192.969 69.1112 138.656 H 0 **** 0.053
40739 H 191.725 67.9515 139.112 H 0 **** 0.053
40740 H 193.752 69.3298 140.892 H 0 **** 0.053
40741 H 192.191 68.6402 141.307 H 0 **** 0.053
40742 H 194.886 67.2354 140.975 H 0 **** 0.053
40743 H 193.755 65.0494 141.189 H 0 **** 0.053
40744 H 192.348 65.547 138.78 H 0 **** 0.053
40745 H 194.078 65.2401 138.895 H 0 **** 0.053
40746 H 191.12 66.397 140.601 H 0 **** 0.053
40747 H 191.196 67.3195 142.755 H 0 **** 0.053
40748 H 193.243 65.2011 143.481 H 0 **** 0.053
40749 H 192.676 66.4703 144.571 H 0 **** 0.053
40750 H 194.893 66.9502 143.259 H 0 **** 0.053
40751 H 193.682 68.2271 143.271 H 0 **** 0.053
40752 H 188.747 64.718 143.433 H 0 **** 0.053
40753 H 189.986 63.1352 142.371 H 0 **** 0.053
40754 H 191.295 64.0239 140.042 H 0 **** 0.053
40755 H 191.989 63.6805 141.633 H 0 **** 0.053
40756 H 189.502 66.9721 141.5 H 0 **** 0.053
40757 H 186.128 63.0076 137.865 H 0 **** 0.053
40758 H 187.807 63.5775 137.665 H 0 **** 0.053
40759 H 187.861 61.2484 138.613 H 0 **** 0.053
40760 H 186.659 61.7032 139.832 H 0 **** 0.053
40761 H 189.222 61.6107 140.586 H 0 **** 0.1268
40762 H 188.582 69.0031 141.77 H 0 **** 0.053
40763 H 186.4 67.7019 145.707 H 0 **** 0.053
40764 H 188.013 68.2914 146.249 H 0 **** 0.053
40765 H 188.371 66.2088 144.897 H 0 **** 0.1268
40766 H 186.176 70.1817 146.551 H 0 **** 0.053
40767 H 187.648 71.0513 146.055 H 0 **** 0.053
40768 H 185.712 72.5292 145.584 H 0 **** 0.053
40769 H 184.886 71.2236 144.707 H 0 **** 0.053
40770 H 188.947 71.064 141.576 H 0 **** 0.053
40771 H 187.377 71.034 140.773 H 0 **** 0.053
40772 H 188.743 73.3714 142.174 H 0 **** 0.053
40773 H 185.902 73.1709 141.048 H 0 **** 0.053
40774 H 186.665 74.7092 141.465 H 0 **** 0.053
40775 H 185.213 73.6751 143.322 H 0 **** 0.053
40776 H 186.871 74.128 143.796 H 0 **** 0.053
40777 H 185.355 70.1199 141.902 H 0 **** 0.053
40778 H 180.837 71.0654 139.045 H 0 **** 0.053
40779 H 178.892 71.309 137.747 H 0 **** 0.053
40780 H 183.218 64.3677 136.537 H 0 **** 0.053
40781 H 175.106 72.1908 133.869 H 0 **** 0.053
40782 H 176.752 72.8296 135.372 H 0 **** 0.053
40783 H 175.102 71.4116 137.503 H 0 **** 0.053
40784 H 174.594 73.819 137.278 H 0 **** 0.053
40785 H 176.187 74.5284 136.925 H 0 **** 0.053
40786 H 175.363 74.8218 134.487 H 0 **** 0.053
40787 H 174.524 75.8648 135.644 H 0 **** 0.053
40788 H 172.573 74.5363 135.662 H 0 **** 0.053
40789 H 173.019 72.3483 136.045 H 0 **** 0.053
40790 H 172.933 71.927 133.035 H 0 **** 0.053
40791 H 172.179 70.931 134.304 H 0 **** 0.053
40792 H 170.655 72.8817 134.797 H 0 **** 0.053
40793 H 170.444 72.336 133.135 H 0 **** 0.053
40794 H 170.845 74.9825 133.738 H 0 **** 0.053
40795 H 171.396 74.3055 132.212 H 0 **** 0.053
40796 H 173.543 74.3071 132.94 H 0 **** 0.353
40797 H 180.567 61.3184 135.083 H 0 **** 0.053
40798 H 183.003 61.6972 134.762 H 0 **** 0.053
40799 H 182.469 64.0599 132.937 H 0 **** 0.053
40800 H 183.92 63.0908 133.109 H 0 **** 0.053
40801 H 183.128 62.3679 130.977 H 0 **** 0.053
40802 H 181.429 62.5839 131.419 H 0 **** 0.053
40803 H 183.231 60.3802 132.566 H 0 **** 0.053
40804 H 182.093 60.1109 131.229 H 0 **** 0.053
40805 H 181.335 59.4966 133.719 H 0 **** 0.053
40806 H 180.177 60.3239 132.653 H 0 **** 0.053
40807 H 178.055 63.053 132.28 H 0 **** 0.053
40808 H 176.016 63.3583 130.984 H 0 **** 0.053
40809 H 173.952 70.167 133.257 H 0 **** 0.053
40810 H 171.669 70.1465 132.269 H 0 **** 0.053
40811 H 170.252 68.5759 131.366 H 0 **** 0.053
40812 H 171.095 69.8071 128.672 H 0 **** 0.053
40813 H 169.777 71.183 131.051 H 0 **** 0.053
40814 H 169.74 71.87 129.41 H 0 **** 0.053
40815 H 171.739 72.5194 131.122 H 0 **** 0.053
40816 H 172.02 72.3954 129.379 H 0 **** 0.053
40817 H 173.69 71.152 131.019 H 0 **** 0.053
40818 H 173.133 70.2494 129.606 H 0 **** 0.053
40819 H 189.499 72.682 139.867 H 0 **** 0.053
40820 H 188.138 73.2544 137.898 H 0 **** 0.053
40821 H 186.795 73.8062 138.927 H 0 **** 0.053
40822 H 187.229 72.0827 138.877 H 0 **** 0.053
40823 H 189.891 74.9608 140.78 H 0 **** 0.053
40824 H 188.317 75.5015 140.148 H 0 **** 0.053
40825 H 189.61 75.0173 139.025 H 0 **** 0.053
40826 H 177.027 71.5209 138.682 H 0 **** 0.41
40827 H 173.1 62.8478 128.744 H 0 **** 0.053
40828 H 171.258 61.694 127.307 H 0 **** 0.053
40829 H 168.994 61.789 126.147 H 0 **** 0.053
40830 H 166.744 61.8492 124.92 H 0 **** 0.053
40831 H 164.506 63.1655 124.388 H 0 **** 0.053
40832 H 162.794 67.7102 125.328 H 0 **** 0.053
40833 H 163.086 65.3051 124.633 H 0 **** 0.053
40834 H 167.887 70.9605 129.063 H 0 **** 0.053
40835 H 165.939 71.2423 129.443 H 0 **** 0.053
40836 H 165.987 72.0698 127.875 H 0 **** 0.053
40837 H 163.826 72.5589 129.002 H 0 **** 0.053
40838 H 163.539 70.8349 129.255 H 0 **** 0.053
40839 H 163.775 72.2171 126.501 H 0 **** 0.053
40840 H 162.251 71.6117 127.189 H 0 **** 0.053
40841 C 155.901 25.3194 203.6 C.3 0 **** 0.054
40842 C 154.899 25.2694 204.789 C.3 0 **** -0.106
40843 C 155.002 23.9192 205.552 C.3 0 **** -0.053
40844 C 155.19 22.7857 204.515 C.3 0 **** -0.053
40845 C 156.462 23.0542 203.655 C.3 0 **** 0.054
40846 O 156.949 24.3824 203.782 O.3 0 **** -0.32
40847 C 153.922 22.6299 203.625 C.3 0 **** -0.053
40848 C 152.585 22.8663 204.427 C.3 0 **** 0.107
40849 C 152.812 22.6447 205.917 C.3 0 **** -0.106
40850 C 153.809 23.6575 206.505 C.3 0 **** -0.106
40851 O 151.505 22.0131 204.034 O.3 0 **** -0.32
40852 C 151.45 21.8933 202.621 C.3 0 **** 0.107
40853 C 152.592 20.9313 202.197 C.3 0 **** -0.053
40854 C 153.916 21.2492 202.939 C.3 0 **** -0.106
40855 C 152.823 20.8244 200.711 C.2 0 **** 0
40856 C 152.582 22.096 199.91 C.3 0 **** 0
40857 C 151.449 22.9915 200.409 C.3 0 **** 0
40858 C 151.393 23.2444 201.911 C.3 0 **** -0.053
40859 C 151.246 24.2568 199.6 C.3 0 **** 0
40860 C 151.069 23.9299 198.121 C.3 0 **** 0
40861 C 152.308 23.0844 197.643 C.3 0 **** 0.16
40862 C 152.478 21.8019 198.427 C.3 0 **** 0
40863 C 153.587 20.8722 197.864 C.3 0 **** -0.106
40864 C 153.347 19.5423 198.563 C.3 0 **** -0.106
40865 C 153.18 19.6856 200.071 C.2 0 **** -0.1268
40866 O 152.555 22.9111 196.23 O.3 0 **** -0.32
40867 C 151.559 23.5124 195.431 C.3 0 **** 0.16
40868 C 151.163 24.9817 195.798 C.3 0 **** 0
40869 C 150.922 25.241 197.305 C.3 0 **** 0
40870 C 150.166 24.0592 202.229 C.2 0 **** 0
40871 C 150.254 25.4482 201.662 C.3 0 **** -0.053
40872 C 150.15 25.1978 200.13 C.3 0 **** 0
40873 C 149.162 26.4264 202.034 C.2 0 **** 0
40874 C 148.009 25.9273 202.552 C.2 0 **** 0
40875 C 147.818 24.4676 202.937 C.3 0 **** -0.106
40876 C 149.061 23.6034 202.808 C.2 0 **** -0.1268
40877 C 146.887 26.8472 202.975 C.3 0 **** -0.106
40878 C 146.834 28.0419 202.033 C.3 0 **** -0.106
40879 C 148.235 28.6029 201.861 C.2 0 **** 0
40880 C 149.332 27.7789 201.884 C.2 0 **** 0
40881 C 150.71 28.3688 201.649 C.3 0 **** -0.106
40882 C 150.769 29.8796 201.823 C.3 0 **** -0.053
40883 C 149.643 30.5322 201.002 C.3 0 **** -0.106
40884 C 148.284 30.0835 201.549 C.3 0 **** -0.106
40885 C 149.703 26.0302 197.797 C.3 0 **** 0.147
40886 C 149.94 26.4523 199.24 C.3 0 **** -0.053
40887 C 150.134 25.6277 194.863 C.3 0 **** 0
40888 C 149.7 27.057 195.207 C.3 0 **** 0.147
40889 S 149.226 27.5106 196.857 S.3 0 **** -0.294
40890 C 148.78 27.6935 194.206 C.3 0 **** -0.053
40891 C 149.435 27.6205 192.821 C.3 0 **** 0
40892 C 149.786 26.1379 192.413 C.3 0 **** 0
40893 C 150.759 25.5299 193.443 C.3 0 **** 0
40894 C 150.425 26.148 191.031 C.3 0 **** 0
40895 C 149.455 26.747 190.031 C.3 0 **** 0
40896 C 149.01 28.226 190.397 C.3 0 **** 0
40897 C 148.383 28.23 191.84 C.3 0 **** -0.053
40898 C 147.931 28.6504 189.361 C.3 0 **** 0
40899 C 148.633 28.7915 188.028 C.3 0 **** 0.16
40900 C 149.344 27.5077 187.59 C.3 0 **** 0
40901 C 149.852 26.5184 188.599 C.3 0 **** 0
40902 C 151.279 24.1148 193.073 C.3 0 **** 0
40903 C 152.253 23.5362 194.093 C.3 0 **** -0.053
40904 C 151.193 24.8811 190.591 C.3 0 **** 0
40905 C 151.436 23.7345 191.576 C.3 0 **** 0
40906 C 150.997 25.5821 188.212 C.3 0 **** 0
40907 C 151.024 24.3672 189.159 C.3 0 **** 0
40908 C 149.514 27.1794 186.106 C.3 0 **** 0
40909 C 150.719 26.2193 185.849 C.3 0 **** 0
40910 C 150.777 25.0025 186.791 C.3 0 **** 0
40911 O 147.717 29.3344 187.101 O.3 0 **** -0.32
40912 C 147.864 30.7377 187.316 C.3 0 **** 0.107
40913 C 147.655 31.0814 188.826 C.3 0 **** -0.053
40914 C 147.03 29.8944 189.555 C.3 0 **** 0.107
40915 C 146.785 32.338 188.98 C.3 0 **** -0.106
40916 C 147.17 33.3781 187.912 C.3 0 **** -0.106
40917 C 146.737 32.8979 186.514 C.3 0 **** 0.134
40918 C 146.852 31.356 186.374 C.3 0 **** -0.053
40919 C 147.153 30.9201 184.918 C.3 0 **** -0.106
40920 C 146.443 31.851 183.944 C.3 0 **** -0.106
40921 C 146.919 33.3225 184.141 C.3 0 **** 0.081
40922 N 147.455 33.6035 185.471 N.3 0 **** -0.727
40923 C 152.605 22.8103 191.14 C.3 0 **** 0.16
40924 C 152.318 22.2797 189.744 C.3 0 **** 0.16
40925 C 152.276 23.4462 188.799 C.3 0 **** 0
40926 O 153.236 21.3149 189.277 O.3 0 **** -0.32
40927 C 153.422 20.309 190.267 C.3 0 **** 0.107
40928 C 153.927 20.9463 191.525 C.3 0 **** 0.107
40929 O 152.876 21.7469 192.04 O.3 0 **** -0.32
40930 C 155.217 21.7738 191.289 C.3 0 **** -0.106
40931 C 156.046 21.2242 190.093 C.3 0 **** -0.106
40932 C 155.86 19.6983 189.976 C.3 0 **** -0.106
40933 C 154.385 19.3109 189.675 C.3 0 **** -0.106
40934 C 151.994 24.0605 186.377 C.3 0 **** 0
40935 C 152.049 22.854 187.369 C.3 0 **** -0.053
40936 C 150.61 25.6729 184.416 C.3 0 **** 0
40937 C 151.742 24.6875 184.072 C.3 0 **** 0.16
40938 C 151.846 23.5188 184.968 C.3 0 **** -0.053
40939 C 150.643 26.9383 183.472 C.3 0 **** 0
40940 C 149.436 27.9094 183.802 C.3 0 **** 0
40941 C 149.68 28.4453 185.222 C.3 0 **** -0.053
40942 O 151.765 24.2268 182.763 O.3 0 **** -0.32
40943 C 151.598 25.3258 181.876 C.3 0 **** 0.16
40944 C 150.367 26.2969 182.115 C.3 0 **** 0
40945 C 149.249 29.0937 182.813 C.3 0 **** -0.053
40946 C 149.273 28.5629 181.381 C.3 0 **** -0.053
40947 C 150.365 27.4592 181.114 C.3 0 **** 0
40948 C 149.665 29.6446 180.433 C.3 0 **** -0.053
40949 C 149.031 30.9536 180.822 C.3 0 **** -0.106
40950 C 149.688 31.4423 182.145 C.3 0 **** -0.106
40951 C 150.238 30.2674 182.98 C.3 0 **** -0.106
40952 C 150.156 26.8624 179.743 C.3 0 **** 0
40953 C 151.172 25.7324 179.402 C.3 0 **** 0
40954 C 151.51 24.7258 180.5 C.3 0 **** 0
40955 C 149.175 29.1004 179.094 C.3 0 **** 0
40956 C 150.074 27.925 178.669 C.3 0 **** 0
40957 C 152.182 30.4409 201.518 C.3 0 **** -0.053
40958 C 152.514 30.4555 200.018 C.3 0 **** -0.159
40959 C 152.365 31.8422 202.112 C.3 0 **** -0.159
40960 O 146.737 30.2301 190.904 O.3 0 **** -0.57
40961 C 152.115 23.3285 180.185 C.3 0 **** -0.053
40962 C 152.614 23.123 178.751 C.3 0 **** -0.053
40963 C 151.625 23.7455 177.75 C.3 0 **** 0
40964 C 151.378 25.2704 177.971 C.3 0 **** 0
40965 C 150.583 26.0847 176.965 C.3 0 **** 0
40966 C 150.5 25.5439 175.568 C.3 0 **** 0
40967 C 151.295 24.2509 175.256 C.3 0 **** 0
40968 C 152.143 23.52 176.325 C.3 0 **** -0.053
40969 C 151.414 23.7948 173.809 C.3 0 **** -0.053
40970 C 150.93 24.7548 172.7 C.3 0 **** -0.053
40971 C 149.945 25.8955 173.102 C.3 0 **** 0
40972 C 150.302 26.589 174.442 C.3 0 **** 0
40973 C 149.219 27.6589 174.861 C.3 0 **** 0
40974 C 149.62 28.3377 176.225 C.3 0 **** 0
40975 C 149.704 27.281 177.345 C.3 0 **** 0
40976 C 149.099 28.7267 173.727 C.3 0 **** 0
40977 C 148.709 27.9946 172.389 C.3 0 **** -0.053
40978 C 149.755 26.9376 171.985 C.3 0 **** -0.053
40979 C 149.084 30.1503 177.967 C.3 0 **** -0.053
40980 C 148.528 29.3869 176.681 C.3 0 **** 0
40981 C 147.984 29.7994 174.12 C.3 0 **** 0.02
40982 C 148.262 30.4314 175.529 C.3 0 **** 0
40983 C 147.34 31.5712 176.024 C.3 0 **** -0.106
40984 C 146.319 31.8882 174.967 C.3 0 **** -0.106
40985 C 147.002 32.0802 173.618 C.3 0 **** -0.086
40986 C 147.798 30.9328 173.115 C.2 0 **** 0.379
40987 O 148.178 30.9141 171.957 O.2 0 **** -0.419
40988 H 156.371 26.3092 203.524 H 0 **** 0.053
40989 H 155.38 25.1489 202.645 H 0 **** 0.053
40990 H 155.071 26.0969 205.505 H 0 **** 0.053
40991 H 153.867 25.4215 204.42 H 0 **** 0.053
40992 H 155.927 23.9677 206.15 H 0 **** 0.053
40993 H 155.307 21.8351 205.068 H 0 **** 0.053
40994 H 156.283 22.8121 202.593 H 0 **** 0.053
40995 H 157.282 22.4066 203.984 H 0 **** 0.053
40996 H 154.011 23.39 202.83 H 0 **** 0.053
40997 H 152.268 23.9184 204.305 H 0 **** 0.053
40998 H 153.18 21.6098 206.05 H 0 **** 0.053
40999 H 151.84 22.6955 206.434 H 0 **** 0.053
41000 H 154.171 23.2891 207.474 H 0 **** 0.053
41001 H 153.283 24.6013 206.708 H 0 **** 0.053
41002 H 150.524 21.3599 202.398 H 0 **** 0.053
41003 H 152.286 19.9288 202.517 H 0 **** 0.053
41004 H 154.815 21.145 202.293 H 0 **** 0.053
41005 H 154.029 20.4968 203.739 H 0 **** 0.053
41006 H 152.256 23.8773 202.169 H 0 **** 0.053
41007 H 153.479 20.7742 196.766 H 0 **** 0.053
41008 H 154.598 21.2887 198.056 H 0 **** 0.053
41009 H 154.142 18.8305 198.327 H 0 **** 0.053
41010 H 152.403 19.1235 198.169 H 0 **** 0.053
41011 H 153.386 18.7777 200.63 H 0 **** 0.1268
41012 H 151.261 25.8719 201.895 H 0 **** 0.053
41013 H 146.981 24.0113 202.328 H 0 **** 0.053
41014 H 147.478 24.4191 204.01 H 0 **** 0.053
41015 H 148.983 22.5888 203.187 H 0 **** 0.1268
41016 H 145.912 26.3143 203.01 H 0 **** 0.053
41017 H 147.106 27.1852 204.003 H 0 **** 0.053
41018 H 146.132 28.8139 202.406 H 0 **** 0.053
41019 H 146.458 27.723 201.043 H 0 **** 0.053
41020 H 151.411 27.9149 202.365 H 0 **** 0.053
41021 H 151.086 28.1012 200.642 H 0 **** 0.053
41022 H 150.566 30.0901 202.893 H 0 **** 0.053
41023 H 149.736 30.2261 199.948 H 0 **** 0.053
41024 H 149.708 31.6295 201.021 H 0 **** 0.053
41025 H 147.477 30.3589 200.831 H 0 **** 0.053
41026 H 148.069 30.642 202.488 H 0 **** 0.053
41027 H 149.065 27.1034 199.584 H 0 **** 0.053
41028 H 148.446 28.7453 194.448 H 0 **** 0.053
41029 H 148.247 29.3078 192.174 H 0 **** 0.053
41030 H 152.595 22.4831 193.871 H 0 **** 0.053
41031 H 148.878 31.0335 187 H 0 **** 0.053
41032 H 148.636 31.3204 189.287 H 0 **** 0.053
41033 H 146.111 29.6345 189.048 H 0 **** 0.053
41034 H 145.714 32.0657 188.86 H 0 **** 0.053
41035 H 146.887 32.7476 190.011 H 0 **** 0.053
41036 H 148.265 33.5006 187.951 H 0 **** 0.053
41037 H 146.731 34.3653 188.126 H 0 **** 0.053
41038 H 145.67 33.1499 186.404 H 0 **** 0.053
41039 H 145.88 30.91 186.668 H 0 **** 0.053
41040 H 148.235 31.0241 184.748 H 0 **** 0.053
41041 H 146.888 29.8594 184.764 H 0 **** 0.053
41042 H 145.357 31.766 184.134 H 0 **** 0.053
41043 H 146.591 31.5287 182.899 H 0 **** 0.053
41044 H 146.076 34.0073 183.957 H 0 **** 0.053
41045 H 147.682 33.5806 183.386 H 0 **** 0.053
41046 H 148.422 33.352 185.517 H 0 **** 0.353
41047 H 152.448 19.865 190.471 H 0 **** 0.053
41048 H 154.146 20.1762 192.26 H 0 **** 0.053
41049 H 154.994 22.8437 191.091 H 0 **** 0.053
41050 H 155.851 21.7906 192.201 H 0 **** 0.053
41051 H 157.118 21.4889 190.202 H 0 **** 0.053
41052 H 155.71 21.7064 189.153 H 0 **** 0.053
41053 H 156.152 19.2523 190.942 H 0 **** 0.053
41054 H 156.534 19.2752 189.208 H 0 **** 0.053
41055 H 154.185 18.2738 190.002 H 0 **** 0.053
41056 H 154.224 19.3289 188.573 H 0 **** 0.053
41057 H 152.923 22.1805 187.066 H 0 **** 0.053
41058 H 152.66 22.805 184.727 H 0 **** 0.053
41059 H 148.876 29.2053 185.431 H 0 **** 0.053
41060 H 148.259 29.4672 183.036 H 0 **** 0.053
41061 H 148.272 28.1478 181.152 H 0 **** 0.053
41062 H 150.766 29.7873 180.392 H 0 **** 0.053
41063 H 147.946 30.7899 180.964 H 0 **** 0.053
41064 H 149.135 31.7531 180.057 H 0 **** 0.053
41065 H 148.943 31.9973 182.75 H 0 **** 0.053
41066 H 150.494 32.1653 181.916 H 0 **** 0.053
41067 H 150.364 30.5763 184.033 H 0 **** 0.053
41068 H 151.23 29.9615 182.622 H 0 **** 0.053
41069 H 152.913 29.7773 202.018 H 0 **** 0.053
41070 H 153.563 30.7491 199.852 H 0 **** 0.053
41071 H 151.875 31.1771 199.483 H 0 **** 0.053
41072 H 152.368 29.47 199.547 H 0 **** 0.053
41073 H 152.187 31.8408 203.199 H 0 **** 0.053
41074 H 151.663 32.5583 201.657 H 0 **** 0.053
41075 H 153.387 32.2158 201.941 H 0 **** 0.053
41076 H 146.349 29.447 191.289 H 0 **** 0.41
41077 H 152.692 22.8328 181.016 H 0 **** 0.053
41078 H 152.821 22.0375 178.538 H 0 **** 0.053
41079 H 152.337 22.4421 176.071 H 0 **** 0.053
41080 H 151.919 22.8241 173.571 H 0 **** 0.053
41081 H 150.826 24.3193 171.675 H 0 **** 0.053
41082 H 148.548 28.7077 171.537 H 0 **** 0.053
41083 H 149.533 26.4492 171.007 H 0 **** 0.053
41084 H 148.375 31.0085 178.254 H 0 **** 0.053
41085 H 146.856 31.3134 176.982 H 0 **** 0.053
41086 H 148.025 32.398 176.205 H 0 **** 0.053
41087 H 145.768 32.787 175.239 H 0 **** 0.053
41088 H 145.582 31.0611 174.914 H 0 **** 0.053
41089 H 147.736 32.8891 173.661 H 0 **** 0.053
41090 H 146.331 32.2472 172.778 H 0 **** 0.053
41091 C 145.974 11.5981 110.419 C.3 0 **** 0.054
41092 C 146.269 11.8354 108.91 C.3 0 **** -0.106
41093 C 147.668 12.4809 108.708 C.3 0 **** -0.053
41094 C 147.885 13.5345 109.821 C.3 0 **** -0.053
41095 C 147.763 12.8646 111.223 C.3 0 **** 0.054
41096 O 147.176 11.5722 111.171 O.3 0 **** -0.32
41097 C 146.888 14.7202 109.666 C.3 0 **** -0.053
41098 C 146.611 15.0872 108.158 C.3 0 **** 0.107
41099 C 147.751 14.5993 107.273 C.3 0 **** -0.106
41100 C 147.877 13.0668 107.29 C.3 0 **** -0.106
41101 O 146.457 16.4895 107.912 O.3 0 **** -0.32
41102 C 145.668 17.0916 108.926 C.3 0 **** 0.107
41103 C 146.565 17.2342 110.184 C.3 0 **** -0.053
41104 C 147.391 15.9493 110.449 C.3 0 **** -0.106
41105 C 145.851 17.6789 111.435 C.2 0 **** 0
41106 C 144.419 17.1866 111.591 C.3 0 **** 0
41107 C 143.615 17.0607 110.298 C.3 0 **** 0
41108 C 144.32 16.3993 109.12 C.3 0 **** -0.053
41109 C 142.199 16.5521 110.486 C.3 0 **** 0
41110 C 141.452 17.4001 111.51 C.3 0 **** 0
41111 C 142.284 17.42 112.847 C.3 0 **** 0.16
41112 C 143.681 17.9684 112.659 C.3 0 **** 0
41113 C 144.459 18.1543 113.99 C.3 0 **** -0.106
41114 C 145.652 19.0155 113.605 C.3 0 **** -0.106
41115 C 146.385 18.4983 112.372 C.2 0 **** -0.1268
41116 O 141.664 17.8751 114.07 O.3 0 **** -0.32
41117 C 140.34 18.3227 113.869 C.3 0 **** 0.16
41118 C 139.407 17.3824 113.036 C.3 0 **** 0
41119 C 140.028 16.8267 111.73 C.3 0 **** 0
41120 C 143.419 16.45 107.913 C.2 0 **** 0
41121 C 142.197 15.594 108.091 C.3 0 **** -0.053
41122 C 141.4 16.3608 109.185 C.3 0 **** 0
41123 C 141.28 15.4274 106.899 C.2 0 **** 0
41124 C 141.403 16.3081 105.872 C.2 0 **** 0
41125 C 142.518 17.34 105.773 C.3 0 **** -0.106
41126 C 143.572 17.2495 106.864 C.2 0 **** -0.1268
41127 C 140.543 16.1838 104.636 C.3 0 **** -0.106
41128 C 139.162 15.6807 105.033 C.3 0 **** -0.106
41129 C 139.315 14.487 105.96 C.2 0 **** 0
41130 C 140.368 14.405 106.836 C.2 0 **** 0
41131 C 140.454 13.2259 107.787 C.3 0 **** -0.106
41132 C 139.581 12.0467 107.383 C.3 0 **** -0.053
41133 C 138.152 12.5419 107.102 C.3 0 **** -0.106
41134 C 138.167 13.5017 105.907 C.3 0 **** -0.106
41135 C 139.251 16.8334 110.407 C.3 0 **** 0.147
41136 C 139.94 15.8927 109.43 C.3 0 **** -0.053
41137 C 137.959 17.8659 112.903 C.3 0 **** 0
41138 C 137.02 16.9894 112.064 C.3 0 **** 0.147
41139 S 137.495 16.3711 110.467 S.3 0 **** -0.294
41140 C 135.581 17.4253 112.058 C.3 0 **** -0.053
41141 C 135.097 17.554 113.508 C.3 0 **** 0
41142 C 135.996 18.5449 114.343 C.3 0 **** 0
41143 C 137.453 18.0389 114.362 C.3 0 **** 0
41144 C 135.449 18.6246 115.761 C.3 0 **** 0
41145 C 134.018 19.1229 115.724 C.3 0 **** 0
41146 C 133.056 18.2082 114.856 C.3 0 **** 0
41147 C 133.635 18.091 113.399 C.3 0 **** -0.053
41148 C 131.67 18.9111 114.809 C.3 0 **** 0
41149 C 131.094 18.8415 116.206 C.3 0 **** 0.16
41150 C 132.004 19.4768 117.262 C.3 0 **** 0
41151 C 133.492 19.5398 117.069 C.3 0 **** 0
41152 C 138.404 18.8666 115.268 C.3 0 **** 0
41153 C 139.836 18.3412 115.289 C.3 0 **** -0.053
41154 C 136.372 19.2175 116.849 C.3 0 **** 0
41155 C 137.832 19.5552 116.536 C.3 0 **** 0
41156 C 134.395 19.6465 118.297 C.3 0 **** 0
41157 C 135.781 20.1785 117.884 C.3 0 **** 0
41158 C 131.41 20.1201 118.516 C.3 0 **** 0
41159 C 132.434 20.1658 119.694 C.3 0 **** 0
41160 C 133.832 20.6809 119.306 C.3 0 **** 0
41161 O 129.768 19.3228 116.164 O.3 0 **** -0.32
41162 C 129.03 18.1533 115.811 C.3 0 **** 0.107
41163 C 129.612 17.5169 114.508 C.3 0 **** -0.053
41164 C 130.556 18.4986 113.817 C.3 0 **** 0.107
41165 C 128.479 17.0898 113.562 C.3 0 **** -0.106
41166 C 127.321 16.476 114.371 C.3 0 **** -0.106
41167 C 126.61 17.5613 115.2 C.3 0 **** 0.134
41168 C 127.602 18.6452 115.701 C.3 0 **** -0.053
41169 C 127.155 19.2736 117.044 C.3 0 **** -0.106
41170 C 125.635 19.3697 117.089 C.3 0 **** -0.106
41171 C 124.989 17.9573 116.95 C.3 0 **** 0.081
41172 N 125.839 16.9755 116.278 N.3 0 **** -0.727
41173 C 138.709 19.6591 117.813 C.3 0 **** 0.16
41174 C 138.097 20.6916 118.747 C.3 0 **** 0.16
41175 C 136.739 20.203 119.16 C.3 0 **** 0
41176 O 138.871 20.9857 119.891 O.3 0 **** -0.32
41177 C 140.214 21.2568 119.506 C.3 0 **** 0.107
41178 C 140.77 20.0631 118.792 C.3 0 **** 0.107
41179 O 140.075 19.9496 117.561 O.3 0 **** -0.32
41180 C 140.658 18.7672 119.636 C.3 0 **** -0.106
41181 C 140.679 19.0672 121.162 C.3 0 **** -0.106
41182 C 141.539 20.3153 121.445 C.3 0 **** -0.106
41183 C 140.955 21.5913 120.776 C.3 0 **** -0.106
41184 C 134.756 20.76 120.601 C.3 0 **** 0
41185 C 136.175 21.2537 120.171 C.3 0 **** -0.053
41186 C 131.889 21.1152 120.774 C.3 0 **** 0
41187 C 132.848 21.2521 121.974 C.3 0 **** 0.16
41188 C 134.208 21.7244 121.637 C.3 0 **** -0.053
41189 C 130.5 20.5092 121.217 C.3 0 **** 0
41190 C 129.512 20.4303 119.982 C.3 0 **** 0
41191 C 130.115 19.4128 119.001 C.3 0 **** -0.053
41192 O 132.382 22.0151 123.039 O.3 0 **** -0.32
41193 C 131.044 21.6324 123.337 C.3 0 **** 0.16
41194 C 129.99 21.6015 122.152 C.3 0 **** 0
41195 C 128.049 20.0329 120.328 C.3 0 **** -0.053
41196 C 127.556 20.8888 121.493 C.3 0 **** -0.053
41197 C 128.62 21.1099 122.633 C.3 0 **** 0
41198 C 126.447 20.1992 122.21 C.3 0 **** -0.053
41199 C 125.526 19.5115 121.237 C.3 0 **** -0.106
41200 C 126.287 18.3098 120.608 C.3 0 **** -0.106
41201 C 127.813 18.5336 120.61 C.3 0 **** -0.106
41202 C 128.101 22.1335 123.616 C.3 0 **** 0
41203 C 129.103 22.451 124.765 C.3 0 **** 0
41204 C 130.582 22.5793 124.41 C.3 0 **** 0
41205 C 125.787 21.3451 122.973 C.3 0 **** 0
41206 C 126.717 21.7881 124.118 C.3 0 **** 0
41207 C 139.659 10.8911 108.414 C.3 0 **** -0.053
41208 C 138.901 11.1919 109.716 C.3 0 **** -0.159
41209 C 139.166 9.57092 107.81 C.3 0 **** -0.159
41210 O 131.008 17.976 112.575 O.3 0 **** -0.57
41211 C 131.592 23.3343 125.32 C.3 0 **** -0.053
41212 C 131.095 23.6658 126.731 C.3 0 **** -0.053
41213 C 129.638 24.1601 126.679 C.3 0 **** 0
41214 C 128.647 23.1397 126.038 C.3 0 **** 0
41215 C 127.149 23.3842 126.071 C.3 0 **** 0
41216 C 126.635 24.2974 127.145 C.3 0 **** 0
41217 C 127.664 24.8535 128.161 C.3 0 **** 0
41218 C 129.168 24.4953 128.098 C.3 0 **** -0.053
41219 C 127.154 25.5994 129.386 C.3 0 **** -0.053
41220 C 125.636 25.5852 129.67 C.3 0 **** -0.053
41221 C 124.677 25.2272 128.493 C.3 0 **** 0
41222 C 125.178 24.0543 127.61 C.3 0 **** 0
41223 C 124.232 23.8007 126.372 C.3 0 **** 0
41224 C 124.777 22.6038 125.504 C.3 0 **** 0
41225 C 126.187 22.9281 124.969 C.3 0 **** 0
41226 C 122.791 23.4953 126.89 C.3 0 **** 0
41227 C 122.302 24.7145 127.758 C.3 0 **** -0.053
41228 C 123.231 24.9767 128.959 C.3 0 **** -0.053
41229 C 124.375 21.032 123.51 C.3 0 **** -0.053
41230 C 123.864 22.3578 124.236 C.3 0 **** 0
41231 C 121.814 23.2684 125.649 C.3 0 **** 0.02
41232 C 122.361 22.1641 124.677 C.3 0 **** 0
41233 C 121.486 21.7361 123.475 C.3 0 **** -0.106
41234 C 120.187 22.4906 123.505 C.3 0 **** -0.106
41235 C 119.559 22.3989 124.891 C.3 0 **** -0.086
41236 C 120.377 22.9115 126.018 C.2 0 **** 0.379
41237 O 119.866 23.0885 127.111 O.2 0 **** -0.419
41238 H 145.482 10.6283 110.576 H 0 **** 0.053
41239 H 145.282 12.3629 110.805 H 0 **** 0.053
41240 H 146.225 10.8919 108.331 H 0 **** 0.053
41241 H 145.484 12.4781 108.469 H 0 **** 0.053
41242 H 148.408 11.6807 108.872 H 0 **** 0.053
41243 H 148.899 13.9571 109.696 H 0 **** 0.053
41244 H 147.208 13.51 111.925 H 0 **** 0.053
41245 H 148.757 12.719 111.658 H 0 **** 0.053
41246 H 145.947 14.3924 110.142 H 0 **** 0.053
41247 H 145.697 14.5659 107.818 H 0 **** 0.053
41248 H 148.683 15.0734 107.636 H 0 **** 0.053
41249 H 147.591 14.9757 106.25 H 0 **** 0.053
41250 H 148.864 12.7799 106.902 H 0 **** 0.053
41251 H 147.136 12.6387 106.6 H 0 **** 0.053
41252 H 145.473 18.1126 108.592 H 0 **** 0.053
41253 H 147.285 18.0299 109.962 H 0 **** 0.053
41254 H 147.478 15.6992 111.529 H 0 **** 0.053
41255 H 148.421 16.1469 110.101 H 0 **** 0.053
41256 H 144.441 15.3335 109.367 H 0 **** 0.053
41257 H 143.818 18.6662 114.735 H 0 **** 0.053
41258 H 144.75 17.1766 114.427 H 0 **** 0.053
41259 H 146.341 19.1246 114.446 H 0 **** 0.053
41260 H 145.271 20.0238 113.358 H 0 **** 0.053
41261 H 147.414 18.8341 112.293 H 0 **** 0.1268
41262 H 142.506 14.5995 108.494 H 0 **** 0.053
41263 H 142.081 18.3832 105.762 H 0 **** 0.053
41264 H 143.04 17.2142 104.782 H 0 **** 0.053
41265 H 144.438 17.8952 106.751 H 0 **** 0.1268
41266 H 140.481 17.1457 104.082 H 0 **** 0.053
41267 H 141.032 15.4565 103.964 H 0 **** 0.053
41268 H 138.557 15.4251 104.141 H 0 **** 0.053
41269 H 138.613 16.4769 105.572 H 0 **** 0.053
41270 H 141.498 12.8814 107.824 H 0 **** 0.053
41271 H 140.198 13.5346 108.819 H 0 **** 0.053
41272 H 139.99 11.6529 106.43 H 0 **** 0.053
41273 H 137.766 13.066 107.991 H 0 **** 0.053
41274 H 137.463 11.7088 106.901 H 0 **** 0.053
41275 H 137.192 14.0392 105.841 H 0 **** 0.053
41276 H 138.261 12.9102 104.969 H 0 **** 0.053
41277 H 139.321 15.8387 108.469 H 0 **** 0.053
41278 H 134.878 16.7912 111.439 H 0 **** 0.053
41279 H 133.058 17.2866 112.841 H 0 **** 0.053
41280 H 140.555 18.9659 115.895 H 0 **** 0.053
41281 H 129.1 17.4341 116.645 H 0 **** 0.053
41282 H 130.169 16.593 114.767 H 0 **** 0.053
41283 H 130.014 19.4165 113.637 H 0 **** 0.053
41284 H 128.109 17.9768 113.004 H 0 **** 0.053
41285 H 128.87 16.3814 112.796 H 0 **** 0.053
41286 H 127.754 15.7106 115.036 H 0 **** 0.053
41287 H 126.598 15.9597 113.72 H 0 **** 0.053
41288 H 125.898 18.0657 114.527 H 0 **** 0.053
41289 H 127.639 19.4549 114.943 H 0 **** 0.053
41290 H 127.469 18.6015 117.856 H 0 **** 0.053
41291 H 127.648 20.2487 117.204 H 0 **** 0.053
41292 H 125.319 20.0248 116.257 H 0 **** 0.053
41293 H 125.291 19.8678 118.011 H 0 **** 0.053
41294 H 124.045 18.0406 116.387 H 0 **** 0.053
41295 H 124.708 17.5675 117.944 H 0 **** 0.053
41296 H 126.466 16.5554 116.934 H 0 **** 0.353
41297 H 140.194 22.0968 118.812 H 0 **** 0.053
41298 H 141.819 20.2313 118.565 H 0 **** 0.053
41299 H 139.729 18.2024 119.409 H 0 **** 0.053
41300 H 141.476 18.0588 119.388 H 0 **** 0.053
41301 H 141.049 18.1901 121.731 H 0 **** 0.053
41302 H 139.646 19.2465 121.522 H 0 **** 0.053
41303 H 142.544 20.1281 121.029 H 0 **** 0.053
41304 H 141.663 20.4729 122.532 H 0 **** 0.053
41305 H 141.75 22.3445 120.625 H 0 **** 0.053
41306 H 140.211 22.0532 121.465 H 0 **** 0.053
41307 H 136.833 21.311 121.106 H 0 **** 0.053
41308 H 134.902 21.8215 122.498 H 0 **** 0.053
41309 H 129.374 19.285 118.162 H 0 **** 0.053
41310 H 127.491 20.2899 119.438 H 0 **** 0.053
41311 H 127.246 21.8725 121.089 H 0 **** 0.053
41312 H 126.821 19.4431 122.933 H 0 **** 0.053
41313 H 125.232 20.239 120.457 H 0 **** 0.053
41314 H 124.583 19.1365 121.693 H 0 **** 0.053
41315 H 125.946 18.1573 119.564 H 0 **** 0.053
41316 H 126.032 17.38 121.151 H 0 **** 0.053
41317 H 128.295 17.8757 119.864 H 0 **** 0.053
41318 H 128.247 18.2742 121.585 H 0 **** 0.053
41319 H 140.726 10.7529 108.671 H 0 **** 0.053
41320 H 139.077 10.4018 110.463 H 0 **** 0.053
41321 H 137.815 11.2445 109.534 H 0 **** 0.053
41322 H 139.209 12.1483 110.168 H 0 **** 0.053
41323 H 139.738 9.30803 106.906 H 0 **** 0.053
41324 H 138.103 9.63827 107.529 H 0 **** 0.053
41325 H 139.274 8.74191 108.527 H 0 **** 0.053
41326 H 131.586 18.6437 112.211 H 0 **** 0.41
41327 H 132.676 23.0516 125.203 H 0 **** 0.053
41328 H 131.78 24.3917 127.25 H 0 **** 0.053
41329 H 129.819 25.238 128.635 H 0 **** 0.053
41330 H 127.882 26.0734 130.092 H 0 **** 0.053
41331 H 125.265 26.3114 130.436 H 0 **** 0.053
41332 H 121.246 24.5917 128.121 H 0 **** 0.053
41333 H 122.872 25.7953 129.625 H 0 **** 0.053
41334 H 123.659 20.7493 122.655 H 0 **** 0.053
41335 H 122.013 21.8871 122.516 H 0 **** 0.053
41336 H 121.354 20.665 123.619 H 0 **** 0.053
41337 H 119.506 22.0899 122.759 H 0 **** 0.053
41338 H 120.376 23.5486 123.233 H 0 **** 0.053
41339 H 119.377 21.3585 125.172 H 0 **** 0.053
41340 H 118.645 22.9729 125.024 H 0 **** 0.053
41341 C 173.245 1.24157 148.733 C.3 0 **** 0.054
41342 C 173.042 0.788435 150.208 C.3 0 **** -0.106
41343 C 172.746 -0.734809 150.29 C.3 0 **** -0.053
41344 C 171.807 -1.11364 149.119 C.3 0 **** -0.053
41345 C 172.468 -0.732915 147.76 C.3 0 **** 0.054
41346 O 173.58 0.139117 147.907 O.3 0 **** -0.32
41347 C 170.413 -0.439943 149.284 C.3 0 **** -0.053
41348 C 169.947 -0.369458 150.788 C.3 0 **** 0.107
41349 C 170.669 -1.42309 151.619 C.3 0 **** -0.106
41350 C 172.187 -1.17998 151.664 C.3 0 **** -0.106
41351 O 168.543 -0.571843 150.979 O.3 0 **** -0.32
41352 C 167.798 0.124815 149.992 C.3 0 **** 0.107
41353 C 167.911 -0.685972 148.673 C.3 0 **** -0.053
41354 C 169.363 -1.16195 148.415 C.3 0 **** -0.106
41355 C 167.344 -0.00779569 147.453 C.2 0 **** 0
41356 C 167.482 1.50753 147.412 C.3 0 **** 0
41357 C 167.375 2.22106 148.759 C.3 0 **** 0
41358 C 168.152 1.6084 149.917 C.3 0 **** -0.053
41359 C 167.534 3.72664 148.685 C.3 0 **** 0
41360 C 166.561 4.32426 147.675 C.3 0 **** 0
41361 C 166.779 3.61274 146.287 C.3 0 **** 0.16
41362 C 166.577 2.11527 146.36 C.3 0 **** 0
41363 C 166.621 1.41526 144.974 C.3 0 **** -0.106
41364 C 166.061 0.0266761 145.242 C.3 0 **** -0.106
41365 C 166.704 -0.650526 146.447 C.2 0 **** -0.1268
41366 O 166.224 4.19489 145.087 O.3 0 **** -0.32
41367 C 165.466 5.3558 145.352 C.3 0 **** 0.16
41368 C 166.131 6.42197 146.285 C.3 0 **** 0
41369 C 166.782 5.85642 147.573 C.3 0 **** 0
41370 C 167.852 2.38037 151.176 C.2 0 **** 0
41371 C 168.395 3.78049 151.116 C.3 0 **** -0.053
41372 C 167.491 4.45051 150.042 C.3 0 **** 0
41373 C 168.3 4.62125 152.37 C.2 0 **** 0
41374 C 167.442 4.21807 153.343 C.2 0 **** 0
41375 C 166.71 2.88517 153.326 C.3 0 **** -0.106
41376 C 167.083 1.96485 152.176 C.2 0 **** -0.1268
41377 C 167.318 4.99013 154.633 C.3 0 **** -0.106
41378 C 167.493 6.47446 154.356 C.3 0 **** -0.106
41379 C 168.716 6.67737 153.478 C.2 0 **** 0
41380 C 169.073 5.74188 152.539 C.2 0 **** 0
41381 C 170.266 6.00841 151.64 C.3 0 **** -0.106
41382 C 171.189 7.10447 152.152 C.3 0 **** -0.053
41383 C 170.357 8.35031 152.502 C.3 0 **** -0.106
41384 C 169.396 8.01965 153.649 C.3 0 **** -0.106
41385 C 166.551 6.51039 148.941 C.3 0 **** 0.147
41386 C 167.601 5.99419 149.914 C.3 0 **** -0.053
41387 C 165.311 7.70016 146.49 C.3 0 **** 0
41388 C 165.912 8.75546 147.427 C.3 0 **** 0.147
41389 S 166.581 8.32552 149.015 S.3 0 **** -0.294
41390 C 165.144 10.0458 147.506 C.3 0 **** -0.053
41391 C 164.944 10.5906 146.085 C.3 0 **** 0
41392 C 164.222 9.54635 145.15 C.3 0 **** 0
41393 C 165.063 8.25658 145.06 C.3 0 **** 0
41394 C 164.054 10.161 143.768 C.3 0 **** 0
41395 C 163.226 11.4259 143.875 C.3 0 **** 0
41396 C 163.858 12.512 144.843 C.3 0 **** 0
41397 C 164.069 11.8717 146.264 C.3 0 **** -0.053
41398 C 162.842 13.6837 144.948 C.3 0 **** 0
41399 C 162.812 14.361 143.595 C.3 0 **** 0.16
41400 C 162.443 13.4062 142.456 C.3 0 **** 0
41401 C 162.734 11.9363 142.549 C.3 0 **** 0
41402 C 164.514 7.20558 144.058 C.3 0 **** 0
41403 C 165.368 5.94482 143.969 C.3 0 **** -0.053
41404 C 163.731 9.20649 142.597 C.3 0 **** 0
41405 C 163.745 7.68943 142.799 C.3 0 **** 0
41406 C 162.882 11.1254 141.261 C.3 0 **** 0
41407 C 162.687 9.62714 141.56 C.3 0 **** 0
41408 C 161.713 13.9209 141.215 C.3 0 **** 0
41409 C 161.948 13.0052 139.972 C.3 0 **** 0
41410 C 161.773 11.4998 140.245 C.3 0 **** 0
41411 O 162.025 15.5278 143.701 O.3 0 **** -0.32
41412 C 162.973 16.4938 144.153 C.3 0 **** 0.107
41413 C 163.693 15.9859 145.444 C.3 0 **** -0.053
41414 C 162.947 14.7877 146.027 C.3 0 **** 0.107
41415 C 163.809 17.1146 146.479 C.3 0 **** -0.106
41416 C 164.15 18.4411 145.776 C.3 0 **** -0.106
41417 C 162.95 18.9333 144.945 C.3 0 **** 0.134
41418 C 162.15 17.7519 144.333 C.3 0 **** -0.053
41419 C 161.471 18.1341 142.994 C.3 0 **** -0.106
41420 C 161.015 19.5865 143.043 C.3 0 **** -0.106
41421 C 162.227 20.5371 143.287 C.3 0 **** 0.081
41422 N 163.364 19.8981 143.946 N.3 0 **** -0.727
41423 C 163.891 6.90876 141.466 C.3 0 **** 0.16
41424 C 162.769 7.32454 140.527 C.3 0 **** 0.16
41425 C 162.929 8.78686 140.225 C.3 0 **** 0
41426 O 162.702 6.58986 139.324 O.3 0 **** -0.32
41427 C 162.75 5.19602 139.608 C.3 0 **** 0.107
41428 C 164.022 4.88854 140.338 C.3 0 **** 0.107
41429 O 163.93 5.49804 141.615 O.3 0 **** -0.32
41430 C 165.276 5.36671 139.563 C.3 0 **** -0.106
41431 C 165.034 5.38679 138.026 C.3 0 **** -0.106
41432 C 164.037 4.27854 137.632 C.3 0 **** -0.106
41433 C 162.64 4.4926 138.279 C.3 0 **** -0.106
41434 C 161.955 10.6808 138.89 C.3 0 **** 0
41435 C 161.804 9.15838 139.205 C.3 0 **** -0.053
41436 C 160.927 13.3868 138.888 C.3 0 **** 0
41437 C 161.058 12.5131 137.623 C.3 0 **** 0.16
41438 C 160.916 11.0586 137.85 C.3 0 **** -0.053
41439 C 161.194 14.909 138.563 C.3 0 **** 0
41440 C 160.999 15.794 139.861 C.3 0 **** 0
41441 C 162.102 15.379 140.846 C.3 0 **** -0.053
41442 O 160.238 12.8613 136.556 O.3 0 **** -0.32
41443 C 160.296 14.2707 136.363 C.3 0 **** 0.16
41444 C 160.038 15.2119 137.615 C.3 0 **** 0
41445 C 161.043 17.33 139.629 C.3 0 **** -0.053
41446 C 160.128 17.69 138.46 C.3 0 **** -0.053
41447 C 160.201 16.6915 137.245 C.3 0 **** 0
41448 C 160.551 18.9814 137.848 C.3 0 **** -0.053
41449 C 160.97 19.9652 138.908 C.3 0 **** -0.106
41450 C 162.3 19.4666 139.542 C.3 0 **** -0.106
41451 C 162.449 17.9353 139.43 C.3 0 **** -0.106
41452 C 159.111 17.0231 136.253 C.3 0 **** 0
41453 C 159.075 16.0615 135.028 C.3 0 **** 0
41454 C 159.298 14.5729 135.279 C.3 0 **** 0
41455 C 159.303 19.4043 137.078 C.3 0 **** 0
41456 C 159.129 18.4829 135.857 C.3 0 **** 0
41457 C 172.358 7.37895 151.171 C.3 0 **** -0.053
41458 C 171.922 8.13713 149.909 C.3 0 **** -0.159
41459 C 173.504 8.12511 151.865 C.3 0 **** -0.159
41460 O 163.526 14.3833 147.26 O.3 0 **** -0.57
41461 C 158.831 13.4821 134.274 C.3 0 **** -0.053
41462 C 158.431 13.9884 132.885 C.3 0 **** -0.053
41463 C 157.602 15.2791 133.007 C.3 0 **** 0
41464 C 158.336 16.4336 133.757 C.3 0 **** 0
41465 C 157.738 17.8284 133.81 C.3 0 **** 0
41466 C 156.763 18.1894 132.729 C.3 0 **** 0
41467 C 156.494 17.1331 131.628 C.3 0 **** 0
41468 C 157.204 15.7586 131.608 C.3 0 **** -0.053
41469 C 155.69 17.5425 130.402 C.3 0 **** -0.053
41470 C 155.343 19.0365 130.22 C.3 0 **** -0.053
41471 C 155.427 19.9644 131.471 C.3 0 **** 0
41472 C 156.661 19.6923 132.372 C.3 0 **** 0
41473 C 156.645 20.5774 133.678 C.3 0 **** 0
41474 C 157.912 20.2699 134.562 C.3 0 **** 0
41475 C 157.92 18.7883 134.991 C.3 0 **** 0
41476 C 156.61 22.0842 133.268 C.3 0 **** 0
41477 C 155.335 22.3322 132.38 C.3 0 **** -0.053
41478 C 155.337 21.4582 131.111 C.3 0 **** -0.053
41479 C 159.284 20.8857 136.648 C.3 0 **** -0.053
41480 C 157.896 21.1203 135.896 C.3 0 **** 0
41481 C 156.561 22.9937 134.579 C.3 0 **** 0.02
41482 C 157.736 22.6538 135.562 C.3 0 **** 0
41483 C 157.907 23.5141 136.837 C.3 0 **** -0.106
41484 C 156.865 24.5969 136.857 C.3 0 **** -0.106
41485 C 156.842 25.3289 135.52 C.3 0 **** -0.086
41486 C 156.573 24.4979 134.32 C.2 0 **** 0.379
41487 O 156.309 25.03 133.255 O.2 0 **** -0.419
41488 H 174.072 1.95944 148.653 H 0 **** 0.053
41489 H 172.348 1.75841 148.358 H 0 **** 0.053
41490 H 173.93 1.01243 150.831 H 0 **** 0.053
41491 H 172.218 1.3634 150.669 H 0 **** 0.053
41492 H 173.704 -1.24953 150.115 H 0 **** 0.053
41493 H 171.637 -2.20537 149.159 H 0 **** 0.053
41494 H 171.728 -0.296969 147.066 H 0 **** 0.053
41495 H 172.86 -1.62999 147.268 H 0 **** 0.053
41496 H 170.519 0.583754 148.885 H 0 **** 0.053
41497 H 170.224 0.614223 151.21 H 0 **** 0.053
41498 H 170.443 -2.41138 151.176 H 0 **** 0.053
41499 H 170.236 -1.43215 152.632 H 0 **** 0.053
41500 H 172.691 -2.09659 152 H 0 **** 0.053
41501 H 172.404 -0.4114 152.42 H 0 **** 0.053
41502 H 166.751 0.0464566 150.292 H 0 **** 0.053
41503 H 167.305 -1.58848 148.813 H 0 **** 0.053
41504 H 169.658 -1.10679 147.344 H 0 **** 0.053
41505 H 169.409 -2.23139 148.686 H 0 **** 0.053
41506 H 169.222 1.76241 149.712 H 0 **** 0.053
41507 H 165.992 1.96916 144.249 H 0 **** 0.053
41508 H 167.653 1.39729 144.563 H 0 **** 0.053
41509 H 166.144 -0.604213 144.353 H 0 **** 0.053
41510 H 164.984 0.138524 145.466 H 0 **** 0.053
41511 H 166.623 -1.73304 146.444 H 0 **** 0.1268
41512 H 169.446 3.7465 150.74 H 0 **** 0.053
41513 H 165.592 3.05754 153.319 H 0 **** 0.053
41514 H 166.931 2.33867 154.287 H 0 **** 0.053
41515 H 166.661 0.964494 152.204 H 0 **** 0.1268
41516 H 166.358 4.77945 155.149 H 0 **** 0.053
41517 H 168.123 4.6298 155.293 H 0 **** 0.053
41518 H 167.572 7.05229 155.298 H 0 **** 0.053
41519 H 166.606 6.86119 153.819 H 0 **** 0.053
41520 H 170.851 5.08139 151.552 H 0 **** 0.053
41521 H 169.934 6.25906 150.613 H 0 **** 0.053
41522 H 171.642 6.73113 153.093 H 0 **** 0.053
41523 H 169.781 8.6648 151.617 H 0 **** 0.053
41524 H 170.994 9.2004 152.784 H 0 **** 0.053
41525 H 168.638 8.83114 153.753 H 0 **** 0.053
41526 H 169.965 7.99957 154.605 H 0 **** 0.053
41527 H 167.478 6.53555 150.914 H 0 **** 0.053
41528 H 165.573 10.8317 148.197 H 0 **** 0.053
41529 H 164.695 12.5807 146.894 H 0 **** 0.053
41530 H 164.952 5.14377 143.29 H 0 **** 0.053
41531 H 163.712 16.6583 143.351 H 0 **** 0.053
41532 H 164.73 15.6846 145.192 H 0 **** 0.053
41533 H 161.921 15.082 146.2 H 0 **** 0.053
41534 H 162.843 17.2226 147.02 H 0 **** 0.053
41535 H 164.568 16.8481 147.25 H 0 **** 0.053
41536 H 165.016 18.2522 145.12 H 0 **** 0.053
41537 H 164.458 19.2171 146.494 H 0 **** 0.053
41538 H 162.27 19.4538 145.639 H 0 **** 0.053
41539 H 161.352 17.4687 145.049 H 0 **** 0.053
41540 H 162.222 18.049 142.195 H 0 **** 0.053
41541 H 160.648 17.4369 142.759 H 0 **** 0.053
41542 H 160.28 19.6762 143.863 H 0 **** 0.053
41543 H 160.475 19.8693 142.123 H 0 **** 0.053
41544 H 161.904 21.3894 143.906 H 0 **** 0.053
41545 H 162.566 20.9746 142.332 H 0 **** 0.053
41546 H 163.942 19.4379 143.272 H 0 **** 0.353
41547 H 161.911 4.96529 140.263 H 0 **** 0.053
41548 H 164.104 3.81529 140.489 H 0 **** 0.053
41549 H 165.595 6.38388 139.875 H 0 **** 0.053
41550 H 166.153 4.72388 139.789 H 0 **** 0.053
41551 H 165.99 5.27865 137.475 H 0 **** 0.053
41552 H 164.623 6.37148 137.726 H 0 **** 0.053
41553 H 164.448 3.31877 137.991 H 0 **** 0.053
41554 H 163.945 4.20103 136.533 H 0 **** 0.053
41555 H 162.095 3.53235 138.344 H 0 **** 0.053
41556 H 162.033 5.15394 137.619 H 0 **** 0.053
41557 H 161.932 8.57582 138.229 H 0 **** 0.053
41558 H 161.014 10.4276 136.942 H 0 **** 0.053
41559 H 162.025 16.0651 141.736 H 0 **** 0.053
41560 H 160.634 17.7446 140.54 H 0 **** 0.053
41561 H 159.087 17.7274 138.838 H 0 **** 0.053
41562 H 161.395 18.8515 137.138 H 0 **** 0.053
41563 H 160.171 20.019 139.672 H 0 **** 0.053
41564 H 161.121 21.0002 138.532 H 0 **** 0.053
41565 H 162.337 19.7566 140.611 H 0 **** 0.053
41566 H 163.157 19.9744 139.058 H 0 **** 0.053
41567 H 163.182 17.5702 140.173 H 0 **** 0.053
41568 H 162.833 17.6482 138.443 H 0 **** 0.053
41569 H 172.756 6.39631 150.853 H 0 **** 0.053
41570 H 172.752 8.20892 149.188 H 0 **** 0.053
41571 H 171.605 9.16305 150.158 H 0 **** 0.053
41572 H 171.081 7.64513 149.395 H 0 **** 0.053
41573 H 173.87 7.56736 152.742 H 0 **** 0.053
41574 H 173.175 9.11768 152.211 H 0 **** 0.053
41575 H 174.355 8.2702 151.182 H 0 **** 0.053
41576 H 163.008 13.6369 147.555 H 0 **** 0.41
41577 H 159.363 12.4908 134.333 H 0 **** 0.053
41578 H 157.907 13.1909 132.29 H 0 **** 0.053
41579 H 156.655 14.9915 130.998 H 0 **** 0.053
41580 H 155.42 16.7756 129.632 H 0 **** 0.053
41581 H 154.572 19.2794 129.447 H 0 **** 0.053
41582 H 155.21 23.4106 132.092 H 0 **** 0.053
41583 H 154.475 21.6609 130.433 H 0 **** 0.053
41584 H 159.362 21.584 137.558 H 0 **** 0.053
41585 H 157.86 22.8969 137.751 H 0 **** 0.053
41586 H 158.919 23.9079 136.75 H 0 **** 0.053
41587 H 157.072 25.2977 137.664 H 0 **** 0.053
41588 H 155.875 24.1442 137.068 H 0 **** 0.053
41589 H 157.816 25.7733 135.299 H 0 **** 0.053
41590 H 156.069 26.0878 135.42 H 0 **** 0.053
41591 C 153.684 98.8548 166.931 C.3 0 **** 0.054
41592 C 153.603 99.6638 168.258 C.3 0 **** -0.106
41593 C 154.94 100.4 168.548 C.3 0 **** -0.053
41594 C 156.108 99.4607 168.164 C.3 0 **** -0.053
41595 C 155.995 99.0525 166.664 C.3 0 **** 0.054
41596 O 154.724 99.3468 166.102 O.3 0 **** -0.32
41597 C 156.146 98.2121 169.093 C.3 0 **** -0.053
41598 C 155.752 98.5515 170.582 C.3 0 **** 0.107
41599 C 155.966 100.033 170.865 C.3 0 **** -0.106
41600 C 155.053 100.921 170.002 C.3 0 **** -0.106
41601 O 156.492 97.8232 171.567 O.3 0 **** -0.32
41602 C 156.635 96.4646 171.183 C.3 0 **** 0.107
41603 C 157.722 96.4114 170.077 C.3 0 **** -0.053
41604 C 157.532 97.5395 169.03 C.3 0 **** -0.106
41605 C 157.884 95.0743 169.4 C.2 0 **** 0
41606 C 156.611 94.2563 169.236 C.3 0 **** 0
41607 C 155.589 94.3834 170.366 C.3 0 **** 0
41608 C 155.301 95.7931 170.867 C.3 0 **** -0.053
41609 C 154.326 93.5698 170.163 C.3 0 **** 0
41610 C 154.663 92.1066 169.897 C.3 0 **** 0
41611 C 155.646 92.0335 168.67 C.3 0 **** 0.16
41612 C 156.923 92.813 168.896 C.3 0 **** 0
41613 C 157.977 92.6181 167.772 C.3 0 **** -0.106
41614 C 159.259 93.1851 168.363 C.3 0 **** -0.106
41615 C 159.067 94.5647 168.983 C.2 0 **** -0.1268
41616 O 155.873 90.7702 168.006 O.3 0 **** -0.32
41617 C 155.186 89.7049 168.628 C.3 0 **** 0.16
41618 C 153.676 89.9485 168.958 C.3 0 **** 0
41619 C 153.36 91.3056 169.635 C.3 0 **** 0
41620 C 154.353 95.717 172.036 C.2 0 **** 0
41621 C 152.993 95.2272 171.623 C.3 0 **** -0.053
41622 C 153.263 93.7381 171.263 C.3 0 **** 0
41623 C 151.897 95.2477 172.665 C.2 0 **** 0
41624 C 152.259 95.3653 173.969 C.2 0 **** 0
41625 C 153.682 95.6487 174.429 C.3 0 **** -0.106
41626 C 154.676 95.9088 173.31 C.2 0 **** -0.1268
41627 C 151.216 95.4239 175.061 C.3 0 **** -0.106
41628 C 150.042 94.5317 174.684 C.3 0 **** -0.106
41629 C 149.638 94.8209 173.249 C.2 0 **** 0
41630 C 150.574 95.1785 172.311 C.2 0 **** 0
41631 C 150.139 95.4017 170.875 C.3 0 **** -0.106
41632 C 148.64 95.6068 170.712 C.3 0 **** -0.053
41633 C 147.888 94.4811 171.442 C.3 0 **** -0.106
41634 C 148.177 94.5619 172.945 C.3 0 **** -0.106
41635 C 152.436 91.3954 170.857 C.3 0 **** 0.147
41636 C 152.012 92.8448 171.044 C.3 0 **** -0.053
41637 C 152.946 88.7442 169.563 C.3 0 **** 0
41638 C 151.472 88.9536 169.932 C.3 0 **** 0.147
41639 S 150.929 90.3812 170.84 S.3 0 **** -0.294
41640 C 150.756 87.7197 170.406 C.3 0 **** -0.053
41641 C 150.928 86.6142 169.356 C.3 0 **** 0
41642 C 152.448 86.3183 169.058 C.3 0 **** 0
41643 C 153.136 87.5956 168.533 C.3 0 **** 0
41644 C 152.536 85.2104 168.018 C.3 0 **** 0
41645 C 151.857 83.9641 168.549 C.3 0 **** 0
41646 C 150.332 84.191 168.926 C.3 0 **** 0
41647 C 150.231 85.3599 169.973 C.3 0 **** -0.053
41648 C 149.815 82.8731 169.568 C.3 0 **** 0
41649 C 149.778 81.8335 168.469 C.3 0 **** 0.16
41650 C 151.14 81.625 167.799 C.3 0 **** 0
41651 C 152.156 82.7289 167.746 C.3 0 **** 0
41652 C 154.606 87.3885 168.079 C.3 0 **** 0
41653 C 155.264 88.6573 167.547 C.3 0 **** -0.053
41654 C 153.886 85.0194 167.291 C.3 0 **** 0
41655 C 155.032 86.0139 167.497 C.3 0 **** 0
41656 C 153.218 82.7118 166.646 C.3 0 **** 0
41657 C 154.409 83.6001 167.052 C.3 0 **** 0
41658 C 151.514 80.268 167.203 C.3 0 **** 0
41659 C 152.603 80.392 166.091 C.3 0 **** 0
41660 C 153.799 81.2865 166.464 C.3 0 **** 0
41661 O 149.159 80.6726 168.979 O.3 0 **** -0.32
41662 C 147.776 80.9426 168.756 C.3 0 **** 0.107
41663 C 147.38 82.3133 169.395 C.3 0 **** -0.053
41664 C 148.478 82.7893 170.344 C.3 0 **** 0.107
41665 C 146.035 82.2012 170.127 C.3 0 **** -0.106
41666 C 145.065 81.3235 169.315 C.3 0 **** -0.106
41667 C 145.525 79.8541 169.333 C.3 0 **** 0.134
41668 C 147.073 79.7368 169.345 C.3 0 **** -0.053
41669 C 147.569 78.4456 168.647 C.3 0 **** -0.106
41670 C 146.588 77.3094 168.907 C.3 0 **** -0.106
41671 C 145.172 77.6684 168.362 C.3 0 **** 0.081
41672 N 144.921 79.1039 168.25 N.3 0 **** -0.727
41673 C 156.084 85.9581 166.358 C.3 0 **** 0.16
41674 C 156.61 84.5358 166.243 C.3 0 **** 0.16
41675 C 155.466 83.6432 165.857 C.3 0 **** 0
41676 O 157.677 84.3705 165.333 O.3 0 **** -0.32
41677 C 158.676 85.3535 165.581 C.3 0 **** 0.107
41678 C 158.07 86.7157 165.435 C.3 0 **** 0.107
41679 O 157.152 86.8821 166.502 O.3 0 **** -0.32
41680 C 157.39 86.9134 164.055 C.3 0 **** -0.106
41681 C 158.05 86.0347 162.954 C.3 0 **** -0.106
41682 C 159.55 85.8424 163.256 C.3 0 **** -0.106
41683 C 159.783 85.0834 164.593 C.3 0 **** -0.106
41684 C 154.875 81.2672 165.288 C.3 0 **** 0
41685 C 156.059 82.207 165.681 C.3 0 **** -0.053
41686 C 153.163 78.9902 165.8 C.3 0 **** 0
41687 C 154.273 79.0108 164.728 C.3 0 **** 0.16
41688 C 155.429 79.8758 165.043 C.3 0 **** -0.053
41689 C 151.929 78.1236 165.331 C.3 0 **** 0
41690 C 150.828 78.0688 166.467 C.3 0 **** 0
41691 C 150.292 79.4998 166.63 C.3 0 **** -0.053
41692 O 154.761 77.7696 164.336 O.3 0 **** -0.32
41693 C 153.667 76.8908 164.1 C.3 0 **** 0.16
41694 C 152.565 76.7405 165.232 C.3 0 **** 0
41695 C 149.651 77.0879 166.202 C.3 0 **** -0.053
41696 C 150.211 75.7303 165.783 C.3 0 **** -0.053
41697 C 151.431 75.8082 164.79 C.3 0 **** 0
41698 C 149.198 74.9713 164.997 C.3 0 **** -0.053
41699 C 147.821 75.158 165.577 C.3 0 **** -0.106
41700 C 147.378 76.6278 165.324 C.3 0 **** -0.106
41701 C 148.587 77.5769 165.197 C.3 0 **** -0.106
41702 C 152.029 74.4324 164.616 C.3 0 **** 0
41703 C 153.272 74.4121 163.677 C.3 0 **** 0
41704 C 154.28 75.551 163.799 C.3 0 **** 0
41705 C 149.714 73.538 165.093 C.3 0 **** 0
41706 C 150.987 73.4034 164.237 C.3 0 **** 0
41707 C 148.239 95.7737 169.223 C.3 0 **** -0.053
41708 C 148.291 94.4575 168.433 C.3 0 **** -0.159
41709 C 146.854 96.4158 169.088 C.3 0 **** -0.159
41710 O 148.085 83.9786 171.016 O.3 0 **** -0.57
41711 C 155.745 75.4211 163.295 C.3 0 **** -0.053
41712 C 156.031 74.2189 162.389 C.3 0 **** -0.053
41713 C 155.326 72.9637 162.935 C.3 0 **** 0
41714 C 153.779 73.1168 163.072 C.3 0 **** 0
41715 C 152.907 71.9229 163.418 C.3 0 **** 0
41716 C 153.463 70.5642 163.108 C.3 0 **** 0
41717 C 154.842 70.5022 162.404 C.3 0 **** 0
41718 C 155.635 71.7743 162.02 C.3 0 **** -0.053
41719 C 155.336 69.1615 161.878 C.3 0 **** -0.053
41720 C 154.354 67.9695 161.881 C.3 0 **** -0.053
41721 C 153.106 68.0542 162.814 C.3 0 **** 0
41722 C 152.427 69.4488 162.827 C.3 0 **** 0
41723 C 151.239 69.5175 163.865 C.3 0 **** 0
41724 C 150.579 70.9478 163.846 C.3 0 **** 0
41725 C 151.615 72.0215 164.237 C.3 0 **** 0
41726 C 150.188 68.4196 163.504 C.3 0 **** 0
41727 C 150.902 67.0167 163.526 C.3 0 **** -0.053
41728 C 152.073 66.9498 162.526 C.3 0 **** -0.053
41729 C 148.684 72.4561 164.708 C.3 0 **** -0.053
41730 C 149.41 71.0489 164.907 C.3 0 **** 0
41731 C 148.995 68.4538 164.563 C.3 0 **** 0.02
41732 C 148.367 69.8873 164.68 C.3 0 **** 0
41733 C 147.125 70.0801 165.583 C.3 0 **** -0.106
41734 C 146.723 68.7591 166.176 C.3 0 **** -0.106
41735 C 146.633 67.6991 165.084 C.3 0 **** -0.086
41736 C 147.869 67.4579 164.298 C.2 0 **** 0.379
41737 O 147.952 66.4806 163.574 O.2 0 **** -0.419
41738 H 152.752 98.9465 166.357 H 0 **** 0.053
41739 H 153.818 97.7816 167.138 H 0 **** 0.053
41740 H 152.784 100.409 168.233 H 0 **** 0.053
41741 H 153.349 98.9885 169.096 H 0 **** 0.053
41742 H 154.978 101.261 167.861 H 0 **** 0.053
41743 H 157.054 100.008 168.332 H 0 **** 0.053
41744 H 156.239 97.9851 166.523 H 0 **** 0.053
41745 H 156.72 99.6158 166.065 H 0 **** 0.053
41746 H 155.417 97.4973 168.675 H 0 **** 0.053
41747 H 154.675 98.3509 170.728 H 0 **** 0.053
41748 H 157.031 100.261 170.671 H 0 **** 0.053
41749 H 155.801 100.216 171.939 H 0 **** 0.053
41750 H 155.438 101.95 170.008 H 0 **** 0.053
41751 H 154.055 100.961 170.46 H 0 **** 0.053
41752 H 157.071 95.9515 172.043 H 0 **** 0.053
41753 H 158.679 96.6033 170.575 H 0 **** 0.053
41754 H 157.745 97.2112 167.989 H 0 **** 0.053
41755 H 158.276 98.3235 169.258 H 0 **** 0.053
41756 H 154.758 96.3206 170.067 H 0 **** 0.053
41757 H 158.085 91.5409 167.537 H 0 **** 0.053
41758 H 157.667 93.1267 166.836 H 0 **** 0.053
41759 H 160.056 93.2039 167.616 H 0 **** 0.053
41760 H 159.582 92.5058 169.173 H 0 **** 0.053
41761 H 159.98 95.1466 169.064 H 0 **** 0.1268
41762 H 152.675 95.7737 170.703 H 0 **** 0.053
41763 H 154.059 94.7989 175.073 H 0 **** 0.053
41764 H 153.672 96.5579 175.095 H 0 **** 0.053
41765 H 155.668 96.2293 173.613 H 0 **** 0.1268
41766 H 151.641 95.1405 176.049 H 0 **** 0.053
41767 H 150.883 96.4739 175.144 H 0 **** 0.053
41768 H 149.192 94.673 175.381 H 0 **** 0.053
41769 H 150.34 93.4683 174.759 H 0 **** 0.053
41770 H 150.65 96.2967 170.49 H 0 **** 0.053
41771 H 150.466 94.5624 170.231 H 0 **** 0.053
41772 H 148.387 96.5603 171.22 H 0 **** 0.053
41773 H 148.224 93.5063 171.054 H 0 **** 0.053
41774 H 146.804 94.535 171.269 H 0 **** 0.053
41775 H 147.833 93.6283 173.448 H 0 **** 0.053
41776 H 147.58 95.3919 173.385 H 0 **** 0.053
41777 H 151.265 92.9033 171.908 H 0 **** 0.053
41778 H 149.669 87.8603 170.687 H 0 **** 0.053
41779 H 149.138 85.6486 170.091 H 0 **** 0.053
41780 H 156.352 88.5402 167.268 H 0 **** 0.053
41781 H 147.597 80.969 167.668 H 0 **** 0.053
41782 H 147.237 83.0647 168.591 H 0 **** 0.053
41783 H 148.65 82.0122 171.076 H 0 **** 0.053
41784 H 146.195 81.7435 171.128 H 0 **** 0.053
41785 H 145.617 83.217 170.314 H 0 **** 0.053
41786 H 145.063 81.7045 168.281 H 0 **** 0.053
41787 H 144.032 81.4036 169.687 H 0 **** 0.053
41788 H 145.164 79.4146 170.276 H 0 **** 0.053
41789 H 147.408 79.7012 170.402 H 0 **** 0.053
41790 H 147.585 78.6286 167.563 H 0 **** 0.053
41791 H 148.598 78.1997 168.963 H 0 **** 0.053
41792 H 146.553 77.1443 169.999 H 0 **** 0.053
41793 H 146.946 76.3613 168.471 H 0 **** 0.053
41794 H 144.405 77.2358 169.024 H 0 **** 0.053
41795 H 145.013 77.1991 167.376 H 0 **** 0.053
41796 H 145.272 79.4541 167.381 H 0 **** 0.353
41797 H 159.009 85.2312 166.611 H 0 **** 0.053
41798 H 158.844 87.4711 165.544 H 0 **** 0.053
41799 H 156.307 86.6703 164.087 H 0 **** 0.053
41800 H 157.423 87.9792 163.745 H 0 **** 0.053
41801 H 157.899 86.4817 161.95 H 0 **** 0.053
41802 H 157.554 85.0437 162.921 H 0 **** 0.053
41803 H 160.004 86.8451 163.337 H 0 **** 0.053
41804 H 160.058 85.3222 162.424 H 0 **** 0.053
41805 H 160.786 85.3158 164.997 H 0 **** 0.053
41806 H 159.771 83.9873 164.394 H 0 **** 0.053
41807 H 156.828 82.1874 164.834 H 0 **** 0.053
41808 H 156.228 79.8953 164.272 H 0 **** 0.053
41809 H 149.447 79.4536 167.372 H 0 **** 0.053
41810 H 149.17 76.9904 167.166 H 0 **** 0.053
41811 H 150.522 75.1892 166.698 H 0 **** 0.053
41812 H 149.174 75.2833 163.931 H 0 **** 0.053
41813 H 147.865 74.9456 166.662 H 0 **** 0.053
41814 H 147.053 74.4766 165.15 H 0 **** 0.053
41815 H 146.734 76.9726 166.158 H 0 **** 0.053
41816 H 146.75 76.6774 164.414 H 0 **** 0.053
41817 H 148.272 78.6201 165.379 H 0 **** 0.053
41818 H 149.005 77.5478 164.182 H 0 **** 0.053
41819 H 148.967 96.4704 168.765 H 0 **** 0.053
41820 H 148.115 94.637 167.361 H 0 **** 0.053
41821 H 147.517 93.7576 168.788 H 0 **** 0.053
41822 H 149.265 93.951 168.527 H 0 **** 0.053
41823 H 146.814 97.3902 169.6 H 0 **** 0.053
41824 H 146.076 95.7722 169.528 H 0 **** 0.053
41825 H 146.595 96.5829 168.031 H 0 **** 0.053
41826 H 148.82 84.2085 171.581 H 0 **** 0.41
41827 H 156.28 76.3854 163.063 H 0 **** 0.053
41828 H 157.136 74.0656 162.243 H 0 **** 0.053
41829 H 156.733 71.5793 161.873 H 0 **** 0.053
41830 H 156.36 69.0811 161.434 H 0 **** 0.053
41831 H 154.797 66.9583 161.701 H 0 **** 0.053
41832 H 150.194 66.1674 163.331 H 0 **** 0.053
41833 H 152.555 65.946 162.478 H 0 **** 0.053
41834 H 147.749 72.5155 165.375 H 0 **** 0.053
41835 H 147.31 70.8314 166.37 H 0 **** 0.053
41836 H 146.373 70.4817 164.906 H 0 **** 0.053
41837 H 145.765 68.855 166.684 H 0 **** 0.053
41838 H 147.468 68.4632 166.942 H 0 **** 0.053
41839 H 145.907 67.9839 164.318 H 0 **** 0.053
41840 H 146.413 66.6922 165.431 H 0 **** 0.053
41841 C 164.675 81.1723 104.844 C.3 0 **** 0.054
41842 C 165.33 81.038 106.249 C.3 0 **** -0.106
41843 C 166.547 80.0727 106.209 C.3 0 **** -0.053
41844 C 166.196 78.8803 105.288 C.3 0 **** -0.053
41845 C 165.829 79.3955 103.863 C.3 0 **** 0.054
41846 O 165.585 80.7943 103.823 O.3 0 **** -0.32
41847 C 165.046 78.0261 105.898 C.3 0 **** -0.053
41848 C 165.138 77.9184 107.468 C.3 0 **** 0.107
41849 C 166.562 78.1844 107.938 C.3 0 **** -0.106
41850 C 167.017 79.6171 107.613 C.3 0 **** -0.106
41851 O 164.752 76.6437 107.994 O.3 0 **** -0.32
41852 C 163.591 76.1611 107.336 C.3 0 **** 0.107
41853 C 164.035 75.6448 105.941 C.3 0 **** -0.053
41854 C 165.016 76.627 105.251 C.3 0 **** -0.106
41855 C 162.912 75.2661 105.01 C.2 0 **** 0
41856 C 161.643 76.0986 105.129 C.3 0 **** 0
41857 C 161.293 76.578 106.537 C.3 0 **** 0
41858 C 162.435 77.1584 107.362 C.3 0 **** -0.053
41859 C 160.034 77.4181 106.618 C.3 0 **** 0
41860 C 158.855 76.6873 105.984 C.3 0 **** 0
41861 C 159.242 76.2966 104.509 C.3 0 **** 0.16
41862 C 160.475 75.4236 104.439 C.3 0 **** 0
41863 C 160.777 74.8893 103.012 C.3 0 **** -0.106
41864 C 161.807 73.7926 103.237 C.3 0 **** -0.106
41865 C 162.958 74.2342 104.134 C.2 0 **** -0.1268
41866 O 158.212 75.8871 103.581 O.3 0 **** -0.32
41867 C 156.937 75.8305 104.183 C.3 0 **** 0.16
41868 C 156.516 77.0724 105.037 C.3 0 **** 0
41869 C 157.593 77.5884 106.025 C.3 0 **** 0
41870 C 161.929 77.4846 108.743 C.2 0 **** 0
41871 C 160.931 78.6076 108.724 C.3 0 **** -0.053
41872 C 159.704 77.9598 108.02 C.3 0 **** 0
41873 C 160.455 79.1446 110.055 C.2 0 **** 0
41874 C 160.668 78.3848 111.162 C.2 0 **** 0
41875 C 161.504 77.113 111.165 C.3 0 **** -0.106
41876 C 162.195 76.7973 109.848 C.2 0 **** -0.1268
41877 C 160.248 78.8712 112.529 C.3 0 **** -0.106
41878 C 158.961 79.6733 112.404 C.3 0 **** -0.106
41879 C 159.104 80.6714 111.268 C.2 0 **** 0
41880 C 159.852 80.3721 110.157 C.2 0 **** 0
41881 C 159.923 81.3709 109.017 C.3 0 **** -0.106
41882 C 159.488 82.7768 109.405 C.3 0 **** -0.053
41883 C 158.127 82.7124 110.118 C.3 0 **** -0.106
41884 C 158.269 81.9249 111.425 C.3 0 **** -0.106
41885 C 157.246 77.9368 107.479 C.3 0 **** 0.147
41886 C 158.378 78.7663 108.066 C.3 0 **** -0.053
41887 C 155.097 77.0066 105.613 C.3 0 **** 0
41888 C 154.659 78.1887 106.487 C.3 0 **** 0.147
41889 S 155.697 78.8392 107.774 S.3 0 **** -0.294
41890 C 153.222 78.1536 106.929 C.3 0 **** -0.053
41891 C 152.327 77.9939 105.693 C.3 0 **** 0
41892 C 152.704 76.7127 104.855 C.3 0 **** 0
41893 C 154.169 76.8102 104.382 C.3 0 **** 0
41894 C 151.77 76.6202 103.656 C.3 0 **** 0
41895 C 150.337 76.5254 104.139 C.3 0 **** 0
41896 C 149.892 77.7542 105.038 C.3 0 **** 0
41897 C 150.876 77.8783 106.259 C.3 0 **** -0.053
41898 C 148.458 77.4524 105.555 C.3 0 **** 0
41899 C 147.537 77.5137 104.357 C.3 0 **** 0.16
41900 C 147.94 76.5449 103.241 C.3 0 **** 0
41901 C 149.368 76.1133 103.066 C.3 0 **** 0
41902 C 154.61 75.6632 103.434 C.3 0 **** 0
41903 C 156.056 75.7858 102.961 C.3 0 **** -0.053
41904 C 152.186 75.6852 102.499 C.3 0 **** 0
41905 C 153.56 75.0114 102.494 C.3 0 **** 0
41906 C 149.834 75.6329 101.691 C.3 0 **** 0
41907 C 151.124 74.8039 101.835 C.3 0 **** 0
41908 C 146.884 75.9441 102.313 C.3 0 **** 0
41909 C 147.49 75.4963 100.945 C.3 0 **** 0
41910 C 148.789 74.6771 101.059 C.3 0 **** 0
41911 O 146.206 77.4077 104.815 O.3 0 **** -0.32
41912 C 145.881 78.7628 105.122 C.3 0 **** 0.107
41913 C 146.938 79.3661 106.102 C.3 0 **** -0.053
41914 C 147.797 78.2543 106.702 C.3 0 **** 0.107
41915 C 146.25 80.1817 107.206 C.3 0 **** -0.106
41916 C 145.077 80.9842 106.614 C.3 0 **** -0.106
41917 C 143.934 80.0388 106.198 C.3 0 **** 0.134
41918 C 144.473 78.6815 105.672 C.3 0 **** -0.053
41919 C 143.531 78.0456 104.619 C.3 0 **** -0.106
41920 C 142.081 78.3504 104.972 C.3 0 **** -0.106
41921 C 141.835 79.8897 105.008 C.3 0 **** 0.081
41922 N 143.038 80.6814 105.258 N.3 0 **** -0.727
41923 C 153.989 74.5355 101.08 C.3 0 **** 0.16
41924 C 152.921 73.6024 100.531 C.3 0 **** 0.16
41925 C 151.646 74.3828 100.388 C.3 0 **** 0
41926 O 153.248 72.9868 99.3032 O.3 0 **** -0.32
41927 C 154.549 72.4156 99.3839 C.3 0 **** 0.107
41928 C 155.538 73.4928 99.7084 C.3 0 **** 0.107
41929 O 155.269 73.9245 101.032 O.3 0 **** -0.32
41930 C 155.481 74.668 98.6983 C.3 0 **** -0.106
41931 C 154.997 74.2021 97.2951 C.3 0 **** -0.106
41932 C 155.438 72.7475 97.0381 C.3 0 **** -0.106
41933 C 154.801 71.7556 98.0517 C.3 0 **** -0.106
41934 C 149.262 74.2104 99.6108 C.3 0 **** 0
41935 C 150.596 73.4111 99.7563 C.3 0 **** -0.053
41936 C 146.461 74.6085 100.225 C.3 0 **** 0
41937 C 146.981 74.088 98.8692 C.3 0 **** 0.16
41938 C 148.239 73.3138 98.9372 C.3 0 **** -0.053
41939 C 145.175 75.5065 100.04 C.3 0 **** 0
41940 C 144.626 75.9834 101.446 C.3 0 **** 0
41941 C 145.696 76.9092 102.045 C.3 0 **** -0.053
41942 O 146.071 73.36 98.11 O.3 0 **** -0.32
41943 C 144.824 74.0462 98.0908 C.3 0 **** 0.16
41944 C 144.189 74.4888 99.4759 C.3 0 **** 0
41945 C 143.253 76.7117 101.409 C.3 0 **** -0.053
41946 C 142.269 75.8901 100.579 C.3 0 **** -0.053
41947 C 142.884 75.2677 99.2695 C.3 0 **** 0
41948 C 141.184 76.7627 100.048 C.3 0 **** -0.053
41949 C 140.758 77.7753 101.078 C.3 0 **** -0.106
41950 C 141.916 78.7967 101.269 C.3 0 **** -0.106
41951 C 143.287 78.1783 100.927 C.3 0 **** -0.106
41952 C 141.891 74.3132 98.6499 C.3 0 **** 0
41953 C 142.424 73.6142 97.3642 C.3 0 **** 0
41954 C 143.875 73.1408 97.356 C.3 0 **** 0
41955 C 140.095 75.7531 99.694 C.3 0 **** 0
41956 C 140.534 74.9529 98.4541 C.3 0 **** 0
41957 C 159.523 83.7467 108.196 C.3 0 **** -0.053
41958 C 158.377 83.5116 107.201 C.3 0 **** -0.159
41959 C 159.532 85.2096 108.654 C.3 0 **** -0.159
41960 O 148.69 78.7763 107.676 O.3 0 **** -0.57
41961 C 144.386 72.0465 96.3767 C.3 0 **** -0.053
41962 C 143.446 71.7018 95.2177 C.3 0 **** -0.053
41963 C 141.993 71.618 95.7215 C.3 0 **** 0
41964 C 141.48 72.9308 96.3919 C.3 0 **** 0
41965 C 140.019 73.0904 96.7753 C.3 0 **** 0
41966 C 139.029 72.2264 96.0506 C.3 0 **** 0
41967 C 139.572 71.3152 94.9214 C.3 0 **** 0
41968 C 141.074 71.2601 94.5483 C.3 0 **** -0.053
41969 C 138.58 70.5878 94.0248 C.3 0 **** -0.053
41970 C 137.088 70.9757 94.1255 C.3 0 **** -0.053
41971 C 136.611 71.7048 95.4203 C.3 0 **** 0
41972 C 137.594 72.7951 95.9236 C.3 0 **** 0
41973 C 137.124 73.4279 97.2914 C.3 0 **** 0
41974 C 138.148 74.5279 97.7652 C.3 0 **** 0
41975 C 139.542 73.9051 97.9826 C.3 0 **** 0
41976 C 135.701 74.0426 97.1016 C.3 0 **** 0
41977 C 134.724 72.9059 96.619 C.3 0 **** -0.053
41978 C 135.187 72.2743 95.2914 C.3 0 **** -0.053
41979 C 138.696 76.3652 99.4784 C.3 0 **** -0.053
41980 C 137.714 75.1492 99.1535 C.3 0 **** 0
41981 C 135.197 74.6596 98.4847 C.3 0 **** 0.02
41982 C 136.232 75.6819 99.0733 C.3 0 **** 0
41983 C 135.857 76.4589 100.358 C.3 0 **** -0.106
41984 C 134.469 76.078 100.791 C.3 0 **** -0.106
41985 C 133.507 76.174 99.612 C.3 0 **** -0.086
41986 C 133.831 75.3395 98.4278 C.2 0 **** 0.379
41987 O 133.002 75.1806 97.5486 O.2 0 **** -0.419
41988 H 164.389 82.2134 104.642 H 0 **** 0.053
41989 H 163.75 80.579 104.787 H 0 **** 0.053
41990 H 165.665 82.0187 106.64 H 0 **** 0.053
41991 H 164.582 80.6796 106.98 H 0 **** 0.053
41992 H 167.368 80.625 105.724 H 0 **** 0.053
41993 H 167.082 78.2215 105.23 H 0 **** 0.053
41994 H 164.967 78.8442 103.45 H 0 **** 0.053
41995 H 166.664 79.2227 103.175 H 0 **** 0.053
41996 H 164.106 78.5347 105.62 H 0 **** 0.053
41997 H 164.5 78.6976 107.925 H 0 **** 0.053
41998 H 167.221 77.443 107.447 H 0 **** 0.053
41999 H 166.622 77.9821 109.019 H 0 **** 0.053
42000 H 168.112 79.6747 107.685 H 0 **** 0.053
42001 H 166.62 80.3009 108.377 H 0 **** 0.053
42002 H 163.278 75.2726 107.888 H 0 **** 0.053
42003 H 164.592 74.7177 106.118 H 0 **** 0.053
42004 H 164.843 76.7214 104.156 H 0 **** 0.053
42005 H 166.031 76.2051 105.361 H 0 **** 0.053
42006 H 162.715 78.1192 106.904 H 0 **** 0.053
42007 H 159.852 74.4841 102.555 H 0 **** 0.053
42008 H 161.142 75.6992 102.346 H 0 **** 0.053
42009 H 162.183 73.4108 102.285 H 0 **** 0.053
42010 H 161.297 72.9557 103.749 H 0 **** 0.053
42011 H 163.865 73.6495 104.014 H 0 **** 0.1268
42012 H 161.326 79.4326 108.083 H 0 **** 0.053
42013 H 160.868 76.2305 111.474 H 0 **** 0.053
42014 H 162.303 77.2075 111.955 H 0 **** 0.053
42015 H 162.889 75.9627 109.858 H 0 **** 0.1268
42016 H 160.134 78.0289 113.246 H 0 **** 0.053
42017 H 161.059 79.5141 112.915 H 0 **** 0.053
42018 H 158.71 80.1785 113.358 H 0 **** 0.053
42019 H 158.117 78.9946 112.173 H 0 **** 0.053
42020 H 160.962 81.4206 108.66 H 0 **** 0.053
42021 H 159.32 81.0259 108.155 H 0 **** 0.053
42022 H 160.231 83.1535 110.139 H 0 **** 0.053
42023 H 157.395 82.212 109.464 H 0 **** 0.053
42024 H 157.731 83.7153 110.329 H 0 **** 0.053
42025 H 157.26 81.6751 111.828 H 0 **** 0.053
42026 H 158.758 82.5723 112.187 H 0 **** 0.053
42027 H 158.089 79.0901 109.125 H 0 **** 0.053
42028 H 152.886 79.0169 107.579 H 0 **** 0.053
42029 H 150.677 78.8645 106.788 H 0 **** 0.053
42030 H 156.413 74.9283 102.319 H 0 **** 0.053
42031 H 145.868 79.339 104.181 H 0 **** 0.053
42032 H 147.59 80.0744 105.549 H 0 **** 0.053
42033 H 147.138 77.5391 107.175 H 0 **** 0.053
42034 H 145.866 79.4936 107.991 H 0 **** 0.053
42035 H 146.991 80.8435 107.709 H 0 **** 0.053
42036 H 145.46 81.5277 105.735 H 0 **** 0.053
42037 H 144.703 81.7434 107.319 H 0 **** 0.053
42038 H 143.351 79.8203 107.107 H 0 **** 0.053
42039 H 144.543 77.9823 106.53 H 0 **** 0.053
42040 H 143.742 78.5146 103.646 H 0 **** 0.053
42041 H 143.727 76.9633 104.52 H 0 **** 0.053
42042 H 141.879 77.9012 105.961 H 0 **** 0.053
42043 H 141.385 77.8597 104.27 H 0 **** 0.053
42044 H 141.099 80.123 105.794 H 0 **** 0.053
42045 H 141.376 80.2252 104.062 H 0 **** 0.053
42046 H 143.528 80.846 104.402 H 0 **** 0.353
42047 H 154.542 71.695 100.201 H 0 **** 0.053
42048 H 156.544 73.0799 99.6935 H 0 **** 0.053
42049 H 154.807 75.4802 99.0435 H 0 **** 0.053
42050 H 156.473 75.1582 98.6022 H 0 **** 0.053
42051 H 155.374 74.8801 96.5028 H 0 **** 0.053
42052 H 153.891 74.2628 97.2428 H 0 **** 0.053
42053 H 156.536 72.7081 97.1497 H 0 **** 0.053
42054 H 155.207 72.4407 96.0017 H 0 **** 0.053
42055 H 155.417 70.841 98.1337 H 0 **** 0.053
42056 H 153.807 71.4318 97.6648 H 0 **** 0.053
42057 H 150.929 73.0765 98.714 H 0 **** 0.053
42058 H 148.616 72.9404 97.9622 H 0 **** 0.053
42059 H 145.275 77.3221 103.005 H 0 **** 0.053
42060 H 142.931 76.7138 102.441 H 0 **** 0.053
42061 H 141.876 75.0757 101.219 H 0 **** 0.053
42062 H 141.494 77.306 99.1299 H 0 **** 0.053
42063 H 140.546 77.2445 102.025 H 0 **** 0.053
42064 H 139.834 78.3322 100.811 H 0 **** 0.053
42065 H 141.931 79.1511 102.319 H 0 **** 0.053
42066 H 141.729 79.6935 100.648 H 0 **** 0.053
42067 H 144.097 78.7651 101.398 H 0 **** 0.053
42068 H 143.47 78.201 99.8453 H 0 **** 0.053
42069 H 160.476 83.5676 107.661 H 0 **** 0.053
42070 H 158.504 84.1369 106.303 H 0 **** 0.053
42071 H 157.406 83.769 107.655 H 0 **** 0.053
42072 H 158.321 82.463 106.868 H 0 **** 0.053
42073 H 160.383 85.4123 109.325 H 0 **** 0.053
42074 H 158.608 85.4574 109.2 H 0 **** 0.053
42075 H 159.612 85.894 107.796 H 0 **** 0.053
42076 H 149.185 78.0258 108 H 0 **** 0.41
42077 H 145.493 72.0444 96.1668 H 0 **** 0.053
42078 H 143.773 70.7658 94.6851 H 0 **** 0.053
42079 H 141.36 70.3163 94.0075 H 0 **** 0.053
42080 H 138.951 69.866 93.2537 H 0 **** 0.053
42081 H 136.361 70.2913 93.6212 H 0 **** 0.053
42082 H 133.664 73.2616 96.5151 H 0 **** 0.053
42083 H 134.479 71.5094 94.8961 H 0 **** 0.053
42084 H 138.336 76.9229 100.417 H 0 **** 0.053
42085 H 136.59 76.283 101.165 H 0 **** 0.053
42086 H 135.931 77.5035 100.059 H 0 **** 0.053
42087 H 134.139 76.7292 101.598 H 0 **** 0.053
42088 H 134.486 75.0453 101.194 H 0 **** 0.053
42089 H 133.489 77.1867 99.2012 H 0 **** 0.053
42090 H 132.489 75.8503 99.8165 H 0 **** 0.053
42091 C 97.3132 84.7883 97.7692 C.3 0 **** 0.054
42092 C 96.8269 83.4391 97.1658 C.3 0 **** -0.106
42093 C 96.2698 82.5 98.2715 C.3 0 **** -0.053
42094 C 97.1733 82.627 99.5216 C.3 0 **** -0.053
42095 C 97.2175 84.1091 100.001 C.3 0 **** 0.054
42096 O 96.7161 85.0213 99.0342 O.3 0 **** -0.32
42097 C 98.6017 82.078 99.2329 C.3 0 **** -0.053
42098 C 98.5871 80.814 98.291 C.3 0 **** 0.107
42099 C 97.2279 80.1269 98.3422 C.3 0 **** -0.106
42100 C 96.1057 81.0315 97.8065 C.3 0 **** -0.106
42101 O 99.5709 79.8261 98.617 O.3 0 **** -0.32
42102 C 100.812 80.4394 98.9301 C.3 0 **** 0.107
42103 C 100.683 81.0326 100.359 C.3 0 **** -0.053
42104 C 99.3348 81.7721 100.554 C.3 0 **** -0.106
42105 C 101.837 81.8959 100.801 C.2 0 **** 0
42106 C 102.507 82.7176 99.7084 C.3 0 **** 0
42107 C 102.573 82.0615 98.3299 C.3 0 **** 0
42108 C 101.3 81.386 97.8357 C.3 0 **** -0.053
42109 C 103.23 82.9125 97.2615 C.3 0 **** 0
42110 C 104.613 83.372 97.7115 C.3 0 **** 0
42111 C 104.469 84.1172 99.0911 C.3 0 **** 0.16
42112 C 103.851 83.2476 100.164 C.3 0 **** 0
42113 C 103.854 83.9029 101.572 C.3 0 **** -0.106
42114 C 103.527 82.7555 102.516 C.3 0 **** -0.106
42115 C 102.317 81.944 102.066 C.2 0 **** -0.1268
42116 O 105.558 84.9271 99.5862 O.3 0 **** -0.32
42117 C 106.689 84.8832 98.7418 C.3 0 **** 0.16
42118 C 106.425 85.0996 97.2145 C.3 0 **** 0
42119 C 105.241 84.2885 96.629 C.3 0 **** 0
42120 C 101.578 80.7152 96.5155 C.2 0 **** 0
42121 C 101.866 81.7134 95.4298 C.3 0 **** -0.053
42122 C 103.247 82.2891 95.8549 C.3 0 **** 0
42123 C 102.01 81.1898 94.0181 C.2 0 **** 0
42124 C 102.22 79.8578 93.8509 C.2 0 **** 0
42125 C 102.148 78.8423 94.9819 C.3 0 **** -0.106
42126 C 101.706 79.4075 96.3218 C.2 0 **** -0.1268
42127 C 102.343 79.2597 92.4686 C.3 0 **** -0.106
42128 C 103.043 80.2525 91.5516 C.3 0 **** -0.106
42129 C 102.405 81.6207 91.7191 C.2 0 **** 0
42130 C 101.906 82.022 92.9329 C.2 0 **** 0
42131 C 101.33 83.4181 93.0751 C.3 0 **** -0.106
42132 C 100.991 84.0805 91.7475 C.3 0 **** -0.053
42133 C 102.2 83.9786 90.8025 C.3 0 **** -0.106
42134 C 102.487 82.5051 90.4932 C.3 0 **** -0.106
42135 C 105.372 83.5226 95.3061 C.3 0 **** 0.147
42136 C 103.979 83.1699 94.806 C.3 0 **** -0.053
42137 C 107.683 85.1199 96.3401 C.3 0 **** 0
42138 C 107.465 85.2941 94.832 C.3 0 **** 0.147
42139 S 106.249 84.3479 93.9461 S.3 0 **** -0.294
42140 C 108.722 85.4353 94.02 C.3 0 **** -0.053
42141 C 109.566 86.5732 94.6097 C.3 0 **** 0
42142 C 109.889 86.3378 96.1352 C.3 0 **** 0
42143 C 108.575 86.2439 96.9381 C.3 0 **** 0
42144 C 110.732 87.499 96.6422 C.3 0 **** 0
42145 C 112.017 87.5765 95.8433 C.3 0 **** 0
42146 C 111.78 87.76 94.2854 C.3 0 **** 0
42147 C 110.878 86.583 93.7618 C.3 0 **** -0.053
42148 C 113.172 87.6935 93.5962 C.3 0 **** 0
42149 C 113.926 88.9382 94.0088 C.3 0 **** 0.16
42150 C 114.065 89.0784 95.5277 C.3 0 **** 0
42151 C 113.054 88.4742 96.4592 C.3 0 **** 0
42152 C 108.772 86.1446 98.4743 C.3 0 **** 0
42153 C 107.463 86.071 99.2534 C.3 0 **** -0.053
42154 C 110.842 87.6856 98.1717 C.3 0 **** 0
42155 C 110.002 86.8331 99.1256 C.3 0 **** 0
42156 C 112.889 89.0649 97.8596 C.3 0 **** 0
42157 C 112.201 88.0414 98.7822 C.3 0 **** 0
42158 C 115.274 89.79 96.1364 C.3 0 **** 0
42159 C 114.971 90.3468 97.5642 C.3 0 **** 0
42160 C 114.271 89.3478 98.5033 C.3 0 **** 0
42161 O 115.129 88.9925 93.2719 O.3 0 **** -0.32
42162 C 114.721 89.6487 92.0722 C.3 0 **** 0.107
42163 C 113.51 88.8998 91.428 C.3 0 **** -0.053
42164 C 113.34 87.5231 92.0671 C.3 0 **** 0.107
42165 C 113.695 88.7781 89.9083 C.3 0 **** -0.106
42166 C 114.293 90.0803 89.3447 C.3 0 **** -0.106
42167 C 115.755 90.2423 89.8012 C.3 0 **** 0.134
42168 C 115.978 89.6752 91.2289 C.3 0 **** -0.053
42169 C 117.106 90.4199 91.9861 C.3 0 **** -0.106
42170 C 118.201 90.8278 91.0096 C.3 0 **** -0.106
42171 C 117.631 91.764 89.901 C.3 0 **** 0.081
42172 N 116.194 91.6178 89.6765 N.3 0 **** -0.727
42173 C 109.866 87.4691 100.535 C.3 0 **** 0.16
42174 C 111.257 87.7122 101.101 C.3 0 **** 0.16
42175 C 111.957 88.7017 100.214 C.3 0 **** 0
42176 O 111.281 88.1639 102.438 O.3 0 **** -0.32
42177 C 110.452 87.3314 103.241 C.3 0 **** 0.107
42178 C 109.054 87.3655 102.703 C.3 0 **** 0.107
42179 O 109.075 86.7174 101.442 O.3 0 **** -0.32
42180 C 108.499 88.8095 102.597 C.3 0 **** -0.106
42181 C 109.144 89.7561 103.65 C.3 0 **** -0.106
42182 C 109.503 88.9657 104.924 C.3 0 **** -0.106
42183 C 110.563 87.8619 104.648 C.3 0 **** -0.106
42184 C 114.093 89.9997 99.9464 C.3 0 **** 0
42185 C 113.351 88.9777 100.866 C.3 0 **** -0.053
42186 C 116.303 90.7302 98.2298 C.3 0 **** 0
42187 C 116.114 91.2662 99.6622 C.3 0 **** 0.16
42188 C 115.425 90.3444 100.588 C.3 0 **** -0.053
42189 C 116.953 91.821 97.2902 C.3 0 **** 0
42190 C 117.193 91.2317 95.8398 C.3 0 **** 0
42191 C 115.804 90.9478 95.2466 C.3 0 **** -0.053
42192 O 117.263 91.7255 100.293 O.3 0 **** -0.32
42193 C 117.986 92.5622 99.3979 C.3 0 **** 0.16
42194 C 118.316 92.0005 97.9517 C.3 0 **** 0
42195 C 118.004 92.1461 94.8794 C.3 0 **** -0.053
42196 C 119.264 92.6339 95.5916 C.3 0 **** -0.053
42197 C 119.043 93.0452 97.0959 C.3 0 **** 0
42198 C 119.751 93.9005 94.975 C.3 0 **** -0.053
42199 C 119.609 93.8562 93.4765 C.3 0 **** -0.106
42200 C 118.094 93.8992 93.1263 C.3 0 **** -0.106
42201 C 117.226 93.3312 94.2679 C.3 0 **** -0.106
42202 C 120.38 93.3023 97.751 C.3 0 **** 0
42203 C 120.263 93.684 99.2566 C.3 0 **** 0
42204 C 119.263 92.9088 100.112 C.3 0 **** 0
42205 C 121.2 93.9615 95.452 C.3 0 **** 0
42206 C 121.221 94.2787 96.9585 C.3 0 **** 0
42207 C 100.46 85.5243 91.9422 C.3 0 **** -0.053
42208 C 101.56 86.525 92.3257 C.3 0 **** -0.159
42209 C 99.7106 86.015 90.6977 C.3 0 **** -0.159
42210 O 112.312 86.788 91.4173 O.3 0 **** -0.57
42211 C 119.366 92.8529 101.663 C.3 0 **** -0.053
42212 C 120.347 93.8398 102.304 C.3 0 **** -0.053
42213 C 121.644 93.9116 101.476 C.3 0 **** 0
42214 C 121.422 94.3356 99.9902 C.3 0 **** 0
42215 C 122.6 94.6442 99.0827 C.3 0 **** 0
42216 C 123.888 95.0298 99.7498 C.3 0 **** 0
42217 C 123.878 95.1641 101.293 C.3 0 **** 0
42218 C 122.61 94.8983 102.142 C.3 0 **** -0.053
42219 C 125.097 95.7577 101.986 C.3 0 **** -0.053
42220 C 126.184 96.4162 101.108 C.3 0 **** -0.053
42221 C 126.232 96.0291 99.5971 C.3 0 **** 0
42222 C 124.834 95.9401 98.9288 C.3 0 **** 0
42223 C 124.925 95.4435 97.4331 C.3 0 **** 0
42224 C 123.487 95.3679 96.7937 C.3 0 **** 0
42225 C 122.605 94.372 97.5743 C.3 0 **** 0
42226 C 125.837 96.4241 96.6284 C.3 0 **** 0
42227 C 127.252 96.4692 97.315 C.3 0 **** -0.053
42228 C 127.168 96.9383 98.7803 C.3 0 **** -0.053
42229 C 122.092 94.9518 94.6751 C.3 0 **** -0.053
42230 C 123.553 94.8357 95.3059 C.3 0 **** 0
42231 C 125.965 95.9178 95.1201 C.3 0 **** 0.02
42232 C 124.558 95.7083 94.4588 C.3 0 **** 0
42233 C 124.493 95.3228 92.9619 C.3 0 **** -0.106
42234 C 125.884 95.2584 92.3974 C.3 0 **** -0.106
42235 C 126.656 96.5222 92.7588 C.3 0 **** -0.086
42236 C 126.794 96.8171 94.2071 C.2 0 **** 0.379
42237 O 127.584 97.6659 94.585 O.2 0 **** -0.419
42238 H 97.0287 85.6317 97.1255 H 0 **** 0.053
42239 H 98.4117 84.8089 97.841 H 0 **** 0.053
42240 H 96.0415 83.5927 96.3999 H 0 **** 0.053
42241 H 97.6578 82.9455 96.6283 H 0 **** 0.053
42242 H 95.2788 82.8956 98.5474 H 0 **** 0.053
42243 H 96.7451 81.9895 100.317 H 0 **** 0.053
42244 H 98.238 84.3983 100.307 H 0 **** 0.053
42245 H 96.5826 84.2376 100.884 H 0 **** 0.053
42246 H 99.1498 82.8977 98.7371 H 0 **** 0.053
42247 H 98.7421 81.1365 97.245 H 0 **** 0.053
42248 H 97.0353 79.8442 99.3945 H 0 **** 0.053
42249 H 97.2864 79.1846 97.7748 H 0 **** 0.053
42250 H 95.1342 80.6359 98.1335 H 0 **** 0.053
42251 H 96.1044 80.9887 96.7081 H 0 **** 0.053
42252 H 101.537 79.6279 99.0172 H 0 **** 0.053
42253 H 100.677 80.1805 101.048 H 0 **** 0.053
42254 H 99.429 82.7017 101.157 H 0 **** 0.053
42255 H 98.6767 81.1009 101.134 H 0 **** 0.053
42256 H 100.567 82.1803 97.6269 H 0 **** 0.053
42257 H 104.853 84.3289 101.789 H 0 **** 0.053
42258 H 103.124 84.7369 101.631 H 0 **** 0.053
42259 H 103.391 83.1188 103.537 H 0 **** 0.053
42260 H 104.395 82.0701 102.522 H 0 **** 0.053
42261 H 101.833 81.3889 102.864 H 0 **** 0.1268
42262 H 101.102 82.5271 95.4736 H 0 **** 0.053
42263 H 103.146 78.3263 95.1057 H 0 **** 0.053
42264 H 101.417 78.0335 94.6949 H 0 **** 0.053
42265 H 101.532 78.6855 97.1143 H 0 **** 0.1268
42266 H 102.874 78.2832 92.4912 H 0 **** 0.053
42267 H 101.32 79.0609 92.102 H 0 **** 0.053
42268 H 103.007 79.9159 90.4965 H 0 **** 0.053
42269 H 104.113 80.3263 91.8253 H 0 **** 0.053
42270 H 100.407 83.3564 93.6715 H 0 **** 0.053
42271 H 102.019 84.0709 93.6449 H 0 **** 0.053
42272 H 100.165 83.4941 91.2954 H 0 **** 0.053
42273 H 103.08 84.4315 91.2863 H 0 **** 0.053
42274 H 102.034 84.5295 89.8657 H 0 **** 0.053
42275 H 103.485 82.4075 90.0062 H 0 **** 0.053
42276 H 101.741 82.1388 89.752 H 0 **** 0.053
42277 H 104.069 82.6644 93.7836 H 0 **** 0.053
42278 H 108.576 85.5595 92.9051 H 0 **** 0.053
42279 H 110.55 86.82 92.6998 H 0 **** 0.053
42280 H 107.587 85.9379 100.368 H 0 **** 0.053
42281 H 114.433 90.6838 92.3225 H 0 **** 0.053
42282 H 112.586 89.4933 91.5847 H 0 **** 0.053
42283 H 114.274 86.9878 91.9656 H 0 **** 0.053
42284 H 114.38 87.9316 89.6847 H 0 **** 0.053
42285 H 112.723 88.5266 89.4254 H 0 **** 0.053
42286 H 113.68 90.9148 89.7245 H 0 **** 0.053
42287 H 114.232 90.1157 88.2456 H 0 **** 0.053
42288 H 116.374 89.6391 89.1172 H 0 **** 0.053
42289 H 116.279 88.6113 91.1339 H 0 **** 0.053
42290 H 116.68 91.341 92.4109 H 0 **** 0.053
42291 H 117.487 89.8081 92.8225 H 0 **** 0.053
42292 H 118.61 89.9027 90.564 H 0 **** 0.053
42293 H 119.046 91.3094 91.5315 H 0 **** 0.053
42294 H 118.15 91.5632 88.9504 H 0 **** 0.053
42295 H 117.85 92.8187 90.1428 H 0 **** 0.053
42296 H 115.682 92.1807 90.3265 H 0 **** 0.353
42297 H 110.83 86.3127 103.158 H 0 **** 0.053
42298 H 108.399 86.7961 103.357 H 0 **** 0.053
42299 H 108.669 89.2471 101.591 H 0 **** 0.053
42300 H 107.395 88.8211 102.718 H 0 **** 0.053
42301 H 108.47 90.6047 103.883 H 0 **** 0.053
42302 H 110.065 90.2089 103.23 H 0 **** 0.053
42303 H 108.579 88.4837 105.288 H 0 **** 0.053
42304 H 109.851 89.6427 105.725 H 0 **** 0.053
42305 H 110.498 87.0672 105.415 H 0 **** 0.053
42306 H 111.58 88.3061 104.741 H 0 **** 0.053
42307 H 113.228 89.45 101.901 H 0 **** 0.053
42308 H 115.284 90.7252 101.62 H 0 **** 0.053
42309 H 115.962 90.6126 94.1827 H 0 **** 0.053
42310 H 118.287 91.4884 94.0688 H 0 **** 0.053
42311 H 120.021 91.8265 95.5424 H 0 **** 0.053
42312 H 119.202 94.789 95.353 H 0 **** 0.053
42313 H 120.068 92.9191 93.1079 H 0 **** 0.053
42314 H 120.12 94.6904 92.9482 H 0 **** 0.053
42315 H 117.907 93.3133 92.2041 H 0 **** 0.053
42316 H 117.794 94.9389 92.8933 H 0 **** 0.053
42317 H 116.233 93.0382 93.8804 H 0 **** 0.053
42318 H 117.05 94.0891 95.0424 H 0 **** 0.053
42319 H 99.7275 85.4943 92.7715 H 0 **** 0.053
42320 H 101.127 87.5087 92.5684 H 0 **** 0.053
42321 H 102.268 86.6667 91.4929 H 0 **** 0.053
42322 H 102.139 86.1942 93.2023 H 0 **** 0.053
42323 H 98.8796 85.3392 90.4399 H 0 **** 0.053
42324 H 100.384 86.0672 89.8274 H 0 **** 0.053
42325 H 99.288 87.0187 90.8587 H 0 **** 0.053
42326 H 112.269 85.9489 91.8721 H 0 **** 0.41
42327 H 118.415 92.6231 102.221 H 0 **** 0.053
42328 H 120.538 93.5893 103.385 H 0 **** 0.053
42329 H 122.84 94.6647 103.218 H 0 **** 0.053
42330 H 125.139 95.7938 103.104 H 0 **** 0.053
42331 H 127.155 96.6478 101.611 H 0 **** 0.053
42332 H 127.984 97.1135 96.7569 H 0 **** 0.053
42333 H 128.164 97.0395 99.2699 H 0 **** 0.053
42334 H 122.123 94.6932 93.5553 H 0 **** 0.053
42335 H 123.957 94.3691 92.8123 H 0 **** 0.053
42336 H 123.896 96.1167 92.5155 H 0 **** 0.053
42337 H 125.843 95.1417 91.3159 H 0 **** 0.053
42338 H 126.398 94.362 92.7998 H 0 **** 0.053
42339 H 126.154 97.4132 92.373 H 0 **** 0.053
42340 H 127.699 96.534 92.4483 H 0 **** 0.053
42341 C 172.915 -1.91791 160.739 C.3 0 **** 0.054
42342 C 172.34 -1.69807 159.31 C.3 0 **** -0.106
42343 C 173.479 -1.55437 158.264 C.3 0 **** -0.053
42344 C 174.616 -0.711531 158.891 C.3 0 **** -0.053
42345 C 175.124 -1.38895 160.199 C.3 0 **** 0.054
42346 O 174.248 -2.39871 160.68 O.3 0 **** -0.32
42347 C 174.145 0.749735 159.151 C.3 0 **** -0.053
42348 C 173.179 1.28566 158.026 C.3 0 **** 0.107
42349 C 173.374 0.497966 156.736 C.3 0 **** -0.106
42350 C 173 -0.983849 156.905 C.3 0 **** -0.106
42351 O 173.36 2.66948 157.706 O.3 0 **** -0.32
42352 C 173.539 3.43697 158.886 C.3 0 **** 0.107
42353 C 174.987 3.18488 159.384 C.3 0 **** -0.053
42354 C 175.361 1.68156 159.324 C.3 0 **** -0.106
42355 C 175.31 3.76393 160.738 C.2 0 **** 0
42356 C 174.167 3.77804 161.743 C.3 0 **** 0
42357 C 172.775 4.01607 161.161 C.3 0 **** 0
42358 C 172.419 3.23167 159.905 C.3 0 **** -0.053
42359 C 171.657 4.00771 162.186 C.3 0 **** 0
42360 C 171.951 4.99135 163.313 C.3 0 **** 0
42361 C 173.356 4.64151 163.931 C.3 0 **** 0.16
42362 C 174.472 4.6936 162.911 C.3 0 **** 0
42363 C 175.886 4.51775 163.529 C.3 0 **** -0.106
42364 C 176.833 4.94551 162.417 C.3 0 **** -0.106
42365 C 176.51 4.29097 161.079 C.2 0 **** -0.1268
42366 O 173.738 5.1996 165.208 O.3 0 **** -0.32
42367 C 172.764 6.08211 165.722 C.3 0 **** 0.16
42368 C 171.286 5.57038 165.709 C.3 0 **** 0
42369 C 170.825 4.92258 164.378 C.3 0 **** 0
42370 C 171.059 3.664 159.424 C.2 0 **** 0
42371 C 169.972 3.26424 160.381 C.3 0 **** -0.053
42372 C 170.243 4.18364 161.606 C.3 0 **** 0
42373 C 168.54 3.49652 159.951 C.2 0 **** 0
42374 C 168.315 4.34855 158.917 C.2 0 **** 0
42375 C 169.423 4.94754 158.064 C.3 0 **** -0.106
42376 C 170.819 4.4334 158.369 C.2 0 **** -0.1268
42377 C 166.914 4.60299 158.412 C.3 0 **** -0.106
42378 C 165.945 4.57322 159.586 C.3 0 **** -0.106
42379 C 166.222 3.34146 160.43 C.2 0 **** 0
42380 C 167.496 2.85035 160.563 C.2 0 **** 0
42381 C 167.742 1.65344 161.463 C.3 0 **** -0.106
42382 C 166.481 0.869714 161.8 C.3 0 **** -0.053
42383 C 165.397 1.83792 162.302 C.3 0 **** -0.106
42384 C 165.018 2.81039 161.179 C.3 0 **** -0.106
42385 C 169.477 5.27858 163.739 C.3 0 **** 0.147
42386 C 169.137 4.2247 162.695 C.3 0 **** -0.053
42387 C 170.268 6.52499 166.343 C.3 0 **** 0
42388 C 168.802 6.07616 166.317 C.3 0 **** 0.147
42389 S 168.043 5.43488 164.844 S.3 0 **** -0.294
42390 C 167.849 6.97314 167.059 C.3 0 **** -0.053
42391 C 168.363 7.16437 168.492 C.3 0 **** 0
42392 C 169.833 7.7352 168.519 C.3 0 **** 0
42393 C 170.784 6.7643 167.79 C.3 0 **** 0
42394 C 170.265 7.90409 169.968 C.3 0 **** 0
42395 C 169.321 8.85992 170.669 C.3 0 **** 0
42396 C 167.808 8.38461 170.64 C.3 0 **** 0
42397 C 167.365 8.17216 169.146 C.3 0 **** -0.053
42398 C 166.956 9.51785 171.277 C.3 0 **** 0
42399 C 167.307 9.55768 172.749 C.3 0 **** 0.16
42400 C 168.802 9.77684 173.001 C.3 0 **** 0
42401 C 169.831 9.34285 171.999 C.3 0 **** 0
42402 C 172.283 7.1599 167.869 C.3 0 **** 0
42403 C 173.21 6.17912 167.159 C.3 0 **** -0.053
42404 C 171.775 8.07688 170.247 C.3 0 **** 0
42405 C 172.8 7.91825 169.122 C.3 0 **** 0
42406 C 171.256 9.05689 172.474 C.3 0 **** 0
42407 C 172.228 9.11244 171.28 C.3 0 **** 0
42408 C 169.28 10.5009 174.261 C.3 0 **** 0
42409 C 170.747 10.1201 174.637 C.3 0 **** 0
42410 C 171.737 10.1537 173.458 C.3 0 **** 0
42411 O 166.434 10.4623 173.389 O.3 0 **** -0.32
42412 C 165.308 9.63796 173.689 C.3 0 **** 0.107
42413 C 164.794 8.9277 172.396 C.3 0 **** -0.053
42414 C 165.414 9.57312 171.158 C.3 0 **** 0.107
42415 C 163.261 8.97247 172.326 C.3 0 **** -0.106
42416 C 162.663 8.73716 173.726 C.3 0 **** -0.106
42417 C 162.946 9.94337 174.641 C.3 0 **** 0.134
42418 C 164.322 10.5916 174.33 C.3 0 **** -0.053
42419 C 164.958 11.2462 175.581 C.3 0 **** -0.106
42420 C 163.869 11.8494 176.459 C.3 0 **** -0.106
42421 C 162.86 10.7523 176.918 C.3 0 **** 0.081
42422 N 162.805 9.58589 176.038 N.3 0 **** -0.727
42423 C 174.231 7.63528 169.651 C.3 0 **** 0.16
42424 C 174.633 8.75139 170.603 C.3 0 **** 0.16
42425 C 173.695 8.72771 171.775 C.3 0 **** 0
42426 O 175.969 8.69105 171.055 O.3 0 **** -0.32
42427 C 176.844 8.51411 169.946 C.3 0 **** 0.107
42428 C 176.477 7.25141 169.229 C.3 0 **** 0.107
42429 O 175.207 7.4604 168.635 O.3 0 **** -0.32
42430 C 176.475 6.0189 170.17 C.3 0 **** -0.106
42431 C 177.468 6.19449 171.355 C.3 0 **** -0.106
42432 C 178.669 7.05541 170.918 C.3 0 **** -0.106
42433 C 178.241 8.49446 170.513 C.3 0 **** -0.106
42434 C 173.208 9.83054 173.981 C.3 0 **** 0
42435 C 174.183 9.83988 172.76 C.3 0 **** -0.053
42436 C 171.258 11.1258 175.682 C.3 0 **** 0
42437 C 172.717 10.8513 176.099 C.3 0 **** 0.16
42438 C 173.694 10.8544 174.99 C.3 0 **** -0.053
42439 C 170.276 11.0006 176.913 C.3 0 **** 0
42440 C 168.793 11.342 176.476 C.3 0 **** 0
42441 C 168.363 10.2457 175.489 C.3 0 **** -0.053
42442 O 173.219 11.657 177.114 O.3 0 **** -0.32
42443 C 172.264 11.7326 178.166 C.3 0 **** 0.16
42444 C 170.774 12.138 177.799 C.3 0 **** 0
42445 C 167.767 11.4432 177.638 C.3 0 **** -0.053
42446 C 168.336 12.3384 178.737 C.3 0 **** -0.053
42447 C 169.865 12.1113 179.034 C.3 0 **** 0
42448 C 167.698 12.0217 180.046 C.3 0 **** -0.053
42449 C 166.227 11.752 179.875 C.3 0 **** -0.106
42450 C 166.061 10.4066 179.111 C.3 0 **** -0.106
42451 C 167.283 10.0982 178.222 C.3 0 **** -0.106
42452 C 170.362 13.1845 179.974 C.3 0 **** 0
42453 C 171.881 13.0665 180.299 C.3 0 **** 0
42454 C 172.83 12.7103 179.158 C.3 0 **** 0
42455 C 168 13.2715 180.869 C.3 0 **** 0
42456 C 169.501 13.2978 181.212 C.3 0 **** 0
42457 C 166.775 -0.307665 162.765 C.3 0 **** -0.053
42458 C 167.05 0.147828 164.206 C.3 0 **** -0.159
42459 C 165.642 -1.34011 162.745 C.3 0 **** -0.159
42460 O 164.872 9.00972 169.97 O.3 0 **** -0.57
42461 C 174.354 13.0149 179.22 C.3 0 **** -0.053
42462 C 174.898 13.4045 180.598 C.3 0 **** -0.053
42463 C 173.924 14.3664 181.302 C.3 0 **** 0
42464 C 172.488 13.7869 181.488 C.3 0 **** 0
42465 C 171.454 14.5225 182.323 C.3 0 **** 0
42466 C 171.973 15.4848 183.351 C.3 0 **** 0
42467 C 173.51 15.5915 183.516 C.3 0 **** 0
42468 C 174.495 14.7485 182.671 C.3 0 **** -0.053
42469 C 174.067 16.3852 184.69 C.3 0 **** -0.053
42470 C 173.082 16.8693 185.777 C.3 0 **** -0.053
42471 C 171.567 16.9348 185.412 C.3 0 **** 0
42472 C 171.068 15.721 184.585 C.3 0 **** 0
42473 C 169.56 15.8837 184.147 C.3 0 **** 0
42474 C 169.095 14.6317 183.311 C.3 0 **** 0
42475 C 169.949 14.4923 182.034 C.3 0 **** 0
42476 C 168.678 16.0529 185.425 C.3 0 **** 0
42477 C 169.191 17.3071 186.225 C.3 0 **** -0.053
42478 C 170.668 17.1605 186.641 C.3 0 **** -0.053
42479 C 167.148 13.4224 182.146 C.3 0 **** -0.053
42480 C 167.597 14.7927 182.83 C.3 0 **** 0
42481 C 167.152 16.2514 184.998 C.3 0 **** 0.02
42482 C 166.659 15.0922 184.063 C.3 0 **** 0
42483 C 165.171 15.0654 183.639 C.3 0 **** -0.106
42484 C 164.443 16.2117 184.283 C.3 0 **** -0.106
42485 C 164.742 16.2505 185.778 C.3 0 **** -0.086
42486 C 166.17 16.3809 186.159 C.2 0 **** 0.379
42487 O 166.473 16.6506 187.309 O.2 0 **** -0.419
42488 H 172.332 -2.67115 161.286 H 0 **** 0.053
42489 H 172.856 -0.990348 161.329 H 0 **** 0.053
42490 H 171.677 -2.53105 159.003 H 0 **** 0.053
42491 H 171.694 -0.800102 159.298 H 0 **** 0.053
42492 H 173.882 -2.56715 158.099 H 0 **** 0.053
42493 H 175.44 -0.651242 158.157 H 0 **** 0.053
42494 H 175.314 -0.640013 160.988 H 0 **** 0.053
42495 H 176.08 -1.89153 160.015 H 0 **** 0.053
42496 H 173.608 0.730659 160.116 H 0 **** 0.053
42497 H 172.131 1.12898 158.34 H 0 **** 0.053
42498 H 174.434 0.603046 156.438 H 0 **** 0.053
42499 H 172.78 0.971716 155.939 H 0 **** 0.053
42500 H 173.43 -1.56316 156.077 H 0 **** 0.053
42501 H 171.909 -1.0893 156.824 H 0 **** 0.053
42502 H 173.517 4.48275 158.573 H 0 **** 0.053
42503 H 175.65 3.70145 158.681 H 0 **** 0.053
42504 H 175.972 1.34771 160.191 H 0 **** 0.053
42505 H 175.998 1.53994 158.433 H 0 **** 0.053
42506 H 172.32 2.17452 160.194 H 0 **** 0.053
42507 H 175.994 5.16751 164.42 H 0 **** 0.053
42508 H 176.053 3.47313 163.865 H 0 **** 0.053
42509 H 177.872 4.7598 162.699 H 0 **** 0.053
42510 H 176.718 6.03696 162.282 H 0 **** 0.053
42511 H 177.345 4.26156 160.385 H 0 **** 0.1268
42512 H 170.127 2.19966 160.682 H 0 **** 0.053
42513 H 169.412 6.07517 158.141 H 0 **** 0.053
42514 H 169.217 4.71123 156.986 H 0 **** 0.053
42515 H 171.606 4.75093 157.691 H 0 **** 0.1268
42516 H 166.847 5.56204 157.854 H 0 **** 0.053
42517 H 166.667 3.79761 157.697 H 0 **** 0.053
42518 H 164.893 4.59687 159.237 H 0 **** 0.053
42519 H 166.09 5.47223 160.215 H 0 **** 0.053
42520 H 168.442 0.973461 160.956 H 0 **** 0.053
42521 H 168.242 1.96382 162.401 H 0 **** 0.053
42522 H 166.116 0.422832 160.852 H 0 **** 0.053
42523 H 165.784 2.40347 163.164 H 0 **** 0.053
42524 H 164.501 1.30318 162.648 H 0 **** 0.053
42525 H 164.413 3.65021 161.594 H 0 **** 0.053
42526 H 164.362 2.28404 160.45 H 0 **** 0.053
42527 H 168.099 4.44628 162.269 H 0 **** 0.053
42528 H 166.763 6.65677 167.044 H 0 **** 0.053
42529 H 166.356 7.64931 169.136 H 0 **** 0.053
42530 H 174.298 6.48185 167.154 H 0 **** 0.053
42531 H 165.618 8.88549 174.434 H 0 **** 0.053
42532 H 165.075 7.8548 172.429 H 0 **** 0.053
42533 H 165.188 10.6301 171.181 H 0 **** 0.053
42534 H 162.935 9.96679 171.95 H 0 **** 0.053
42535 H 162.891 8.22461 171.588 H 0 **** 0.053
42536 H 163.135 7.82882 174.136 H 0 **** 0.053
42537 H 161.581 8.54065 173.68 H 0 **** 0.053
42538 H 162.178 10.7019 174.419 H 0 **** 0.053
42539 H 164.165 11.3877 173.573 H 0 **** 0.053
42540 H 165.454 10.4562 176.164 H 0 **** 0.053
42541 H 165.727 11.9834 175.29 H 0 **** 0.053
42542 H 163.354 12.6249 175.863 H 0 **** 0.053
42543 H 164.298 12.3744 177.329 H 0 **** 0.053
42544 H 161.85 11.1871 176.977 H 0 **** 0.053
42545 H 163.101 10.4174 177.942 H 0 **** 0.053
42546 H 163.526 8.93496 176.28 H 0 **** 0.353
42547 H 176.69 9.35394 169.269 H 0 **** 0.053
42548 H 177.19 7.0675 168.429 H 0 **** 0.053
42549 H 175.467 5.81906 170.591 H 0 **** 0.053
42550 H 176.728 5.09232 169.612 H 0 **** 0.053
42551 H 177.801 5.20908 171.739 H 0 **** 0.053
42552 H 176.953 6.69036 172.203 H 0 **** 0.053
42553 H 179.128 6.56541 170.041 H 0 **** 0.053
42554 H 179.44 7.09106 171.709 H 0 **** 0.053
42555 H 178.989 8.94093 169.832 H 0 **** 0.053
42556 H 178.223 9.13589 171.424 H 0 **** 0.053
42557 H 175.237 9.60968 173.141 H 0 **** 0.053
42558 H 174.745 10.6547 175.285 H 0 **** 0.053
42559 H 167.28 10.4312 175.241 H 0 **** 0.053
42560 H 166.912 11.9313 177.191 H 0 **** 0.053
42561 H 168.176 13.3929 178.438 H 0 **** 0.053
42562 H 168.162 11.1385 180.536 H 0 **** 0.053
42563 H 165.782 12.5846 179.297 H 0 **** 0.053
42564 H 165.663 11.6903 180.831 H 0 **** 0.053
42565 H 165.153 10.4465 178.477 H 0 **** 0.053
42566 H 165.892 9.58552 179.834 H 0 **** 0.053
42567 H 167.009 9.36551 177.441 H 0 **** 0.053
42568 H 168.092 9.64441 178.809 H 0 **** 0.053
42569 H 167.685 -0.816441 162.393 H 0 **** 0.053
42570 H 167.368 -0.701667 164.831 H 0 **** 0.053
42571 H 166.143 0.577759 164.66 H 0 **** 0.053
42572 H 167.843 0.911497 164.259 H 0 **** 0.053
42573 H 165.468 -1.72227 161.727 H 0 **** 0.053
42574 H 164.699 -0.897809 163.104 H 0 **** 0.053
42575 H 165.878 -2.20094 163.39 H 0 **** 0.053
42576 H 165.307 9.46196 169.25 H 0 **** 0.41
42577 H 175.015 12.3899 178.556 H 0 **** 0.053
42578 H 175.942 13.8194 180.528 H 0 **** 0.053
42579 H 175.528 15.19 182.633 H 0 **** 0.053
42580 H 175.172 16.5374 184.784 H 0 **** 0.053
42581 H 173.472 17.6271 186.501 H 0 **** 0.053
42582 H 168.567 17.5274 187.132 H 0 **** 0.053
42583 H 171.038 18.0078 187.264 H 0 **** 0.053
42584 H 166.026 13.4548 181.897 H 0 **** 0.053
42585 H 165.062 15.09 182.541 H 0 **** 0.053
42586 H 164.819 14.0963 183.99 H 0 **** 0.053
42587 H 163.371 16.1125 184.118 H 0 **** 0.053
42588 H 164.758 17.159 183.801 H 0 **** 0.053
42589 H 164.442 15.3182 186.263 H 0 **** 0.053
42590 H 164.31 17.0911 186.316 H 0 **** 0.053
42591 C 116.684 33.3735 134.088 C.3 0 **** 0.054
42592 C 115.404 34.172 134.469 C.3 0 **** -0.106
42593 C 114.224 33.2151 134.795 C.3 0 **** -0.053
42594 C 114.257 32.0383 133.79 C.3 0 **** -0.053
42595 C 115.628 31.3025 133.874 C.3 0 **** 0.054
42596 O 116.615 32.0441 134.577 O.3 0 **** -0.32
42597 C 113.963 32.5343 132.343 C.3 0 **** -0.053
42598 C 112.888 33.6863 132.303 C.3 0 **** 0.107
42599 C 112.025 33.6536 133.559 C.3 0 **** -0.106
42600 C 112.847 33.9251 134.829 C.3 0 **** -0.106
42601 O 112.002 33.6246 131.181 O.3 0 **** -0.32
42602 C 112.715 33.3042 129.997 C.3 0 **** 0.107
42603 C 113.033 31.786 130.048 C.3 0 **** -0.053
42604 C 113.539 31.3528 131.448 C.3 0 **** -0.106
42605 C 113.956 31.2868 128.967 C.2 0 **** 0
42606 C 115.035 32.261 128.514 C.3 0 **** 0
42607 C 114.638 33.7368 128.511 C.3 0 **** 0
42608 C 113.891 34.2432 129.739 C.3 0 **** -0.053
42609 C 115.74 34.6811 128.072 C.3 0 **** 0
42610 C 116.299 34.2656 126.716 C.3 0 **** 0
42611 C 116.773 32.7666 126.807 C.3 0 **** 0.16
42612 C 115.657 31.8249 127.203 C.3 0 **** 0
42613 C 116.057 30.3255 127.135 C.3 0 **** -0.106
42614 C 114.732 29.5836 127.225 C.3 0 **** -0.106
42615 C 113.853 30.0758 128.37 C.2 0 **** -0.1268
42616 O 117.625 32.22 125.776 O.3 0 **** -0.32
42617 C 117.879 33.1455 124.741 C.3 0 **** 0.16
42618 C 118.315 34.5821 125.182 C.3 0 **** 0
42619 C 117.463 35.2097 126.314 C.3 0 **** 0
42620 C 113.499 35.6812 129.519 C.2 0 **** 0
42621 C 114.697 36.5865 129.464 C.3 0 **** -0.053
42622 C 115.373 36.1745 128.125 C.3 0 **** 0
42623 C 114.446 38.0769 129.403 C.2 0 **** 0
42624 C 113.203 38.4998 129.054 C.2 0 **** 0
42625 C 112.009 37.5703 128.889 C.3 0 **** -0.106
42626 C 112.273 36.1193 129.256 C.2 0 **** -0.1268
42627 C 112.871 39.9732 129.002 C.3 0 **** -0.106
42628 C 114.091 40.7467 128.523 C.3 0 **** -0.106
42629 C 115.311 40.283 129.299 C.2 0 **** 0
42630 C 115.429 38.9808 129.715 C.2 0 **** 0
42631 C 116.689 38.5417 130.436 C.3 0 **** -0.106
42632 C 117.516 39.6955 130.985 C.3 0 **** -0.053
42633 C 117.741 40.736 129.875 C.3 0 **** -0.106
42634 C 116.395 41.33 129.448 C.3 0 **** -0.106
42635 C 116.958 36.6559 126.229 C.3 0 **** 0.147
42636 C 116.511 37.1001 127.614 C.3 0 **** -0.053
42637 C 118.654 35.5351 124.031 C.3 0 **** 0
42638 C 119.052 36.964 124.422 C.3 0 **** 0.147
42639 S 118.114 37.9083 125.599 S.3 0 **** -0.294
42640 C 119.497 37.8337 123.279 C.3 0 **** -0.053
42641 C 120.622 37.1156 122.521 C.3 0 **** 0
42642 C 120.176 35.6887 122.019 C.3 0 **** 0
42643 C 119.77 34.8148 123.224 C.3 0 **** 0
42644 C 121.337 35.0471 121.273 C.3 0 **** 0
42645 C 121.723 35.9179 120.094 C.3 0 **** 0
42646 C 122.135 37.3926 120.509 C.3 0 **** 0
42647 C 120.953 38.0486 121.313 C.3 0 **** -0.053
42648 C 122.376 38.1904 119.197 C.3 0 **** 0
42649 C 123.623 37.6192 118.558 C.3 0 **** 0.16
42650 C 123.519 36.1161 118.283 C.3 0 **** 0
42651 C 122.635 35.2331 119.114 C.3 0 **** 0
42652 C 119.439 33.3427 122.861 C.3 0 **** 0
42653 C 119.056 32.489 124.065 C.3 0 **** -0.053
42654 C 121.274 33.5227 121.031 C.3 0 **** 0
42655 C 120.165 32.6765 121.662 C.3 0 **** 0
42656 C 122.95 33.7399 119.205 C.3 0 **** 0
42657 C 121.701 32.9673 119.669 C.3 0 **** 0
42658 C 124.274 35.4857 117.112 C.3 0 **** 0
42659 C 124.533 33.9614 117.331 C.3 0 **** 0
42660 C 123.304 33.1668 117.809 C.3 0 **** 0
42661 O 123.964 38.4268 117.452 O.3 0 **** -0.32
42662 C 124.754 39.4509 118.055 C.3 0 **** 0.107
42663 C 123.968 40.1227 119.228 C.3 0 **** -0.053
42664 C 122.493 39.7335 119.166 C.3 0 **** 0.107
42665 C 124.134 41.649 119.185 C.3 0 **** -0.106
42666 C 125.581 42.0117 118.807 C.3 0 **** -0.106
42667 C 125.86 41.6506 117.336 C.3 0 **** 0.134
42668 C 125.093 40.3721 116.903 C.3 0 **** -0.053
42669 C 125.844 39.5837 115.801 C.3 0 **** -0.106
42670 C 126.556 40.5533 114.867 C.3 0 **** -0.106
42671 C 127.582 41.4244 115.655 C.3 0 **** 0.081
42672 N 127.283 41.5572 117.079 N.3 0 **** -0.727
42673 C 120.528 31.1684 121.728 C.3 0 **** 0.16
42674 C 120.857 30.6795 120.326 C.3 0 **** 0.16
42675 C 122.068 31.4245 119.843 C.3 0 **** 0
42676 O 121.074 29.2885 120.22 O.3 0 **** -0.32
42677 C 120.012 28.5866 120.858 C.3 0 **** 0.107
42678 C 119.948 28.9979 122.297 C.3 0 **** 0.107
42679 O 119.533 30.3533 122.327 O.3 0 **** -0.32
42680 C 121.3 28.7942 123.028 C.3 0 **** -0.106
42681 C 122.132 27.6405 122.397 C.3 0 **** -0.106
42682 C 121.192 26.5637 121.819 C.3 0 **** -0.106
42683 C 120.305 27.1195 120.669 C.3 0 **** -0.106
42684 C 123.67 31.6197 117.915 C.3 0 **** 0
42685 C 122.415 30.8456 118.432 C.3 0 **** -0.053
42686 C 124.974 33.3455 115.993 C.3 0 **** 0
42687 C 125.228 31.8281 116.099 C.3 0 **** 0.16
42688 C 124.076 31.0342 116.575 C.3 0 **** -0.053
42689 C 126.287 34.1186 115.577 C.3 0 **** 0
42690 C 125.992 35.6661 115.419 C.3 0 **** 0
42691 C 125.627 36.1891 116.817 C.3 0 **** -0.053
42692 O 125.725 31.2155 114.955 O.3 0 **** -0.32
42693 C 126.791 32.0001 114.431 C.3 0 **** 0.16
42694 C 126.533 33.5462 114.185 C.3 0 **** 0
42695 C 127.157 36.5051 114.824 C.3 0 **** -0.053
42696 C 127.683 35.818 113.565 C.3 0 **** -0.053
42697 C 127.798 34.2515 113.679 C.3 0 **** 0
42698 C 129.09 36.2303 113.298 C.3 0 **** -0.053
42699 C 129.283 37.6958 113.585 C.3 0 **** -0.106
42700 C 129.179 37.9112 115.123 C.3 0 **** -0.106
42701 C 128.313 36.827 115.796 C.3 0 **** -0.106
42702 C 128.119 33.669 112.323 C.3 0 **** 0
42703 C 128.214 32.1143 112.324 C.3 0 **** 0
42704 C 127.188 31.3348 113.142 C.3 0 **** 0
42705 C 129.264 35.8665 111.826 C.3 0 **** 0
42706 C 129.321 34.3339 111.689 C.3 0 **** 0
42707 C 118.82 39.1999 131.662 C.3 0 **** -0.053
42708 C 119.881 38.7289 130.656 C.3 0 **** -0.159
42709 C 119.41 40.271 132.587 C.3 0 **** -0.159
42710 O 121.747 40.4228 120.16 O.3 0 **** -0.57
42711 C 126.873 29.8376 112.868 C.3 0 **** -0.053
42712 C 127.86 29.108 111.952 C.3 0 **** -0.053
42713 C 128.255 30.006 110.767 C.3 0 **** 0
42714 C 128.889 31.3669 111.189 C.3 0 **** 0
42715 C 129.495 32.2948 110.152 C.3 0 **** 0
42716 C 129.946 31.6693 108.865 C.3 0 **** 0
42717 C 129.785 30.135 108.719 C.3 0 **** 0
42718 C 129.234 29.2513 109.863 C.3 0 **** -0.053
42719 C 130.452 29.4375 107.542 C.3 0 **** -0.053
42720 C 131.355 30.2732 106.61 C.3 0 **** -0.053
42721 C 131.256 31.828 106.678 C.3 0 **** 0
42722 C 131.096 32.3865 108.116 C.3 0 **** 0
42723 C 130.877 33.95 108.12 C.3 0 **** 0
42724 C 130.718 34.4762 109.597 C.3 0 **** 0
42725 C 129.494 33.8232 110.27 C.3 0 **** 0
42726 C 132.094 34.6319 107.419 C.3 0 **** 0
42727 C 132.214 34.0623 105.955 C.3 0 **** -0.053
42728 C 132.412 32.5337 105.945 C.3 0 **** -0.053
42729 C 130.484 36.5181 111.142 C.3 0 **** -0.053
42730 C 130.461 36.0365 109.621 C.3 0 **** 0
42731 C 131.875 36.2128 107.386 C.3 0 **** 0.02
42732 C 131.593 36.7875 108.819 C.3 0 **** 0
42733 C 131.463 38.3198 108.989 C.3 0 **** -0.106
42734 C 131.684 38.9949 107.665 C.3 0 **** -0.106
42735 C 132.96 38.4717 107.016 C.3 0 **** -0.086
42736 C 133.02 37.0095 106.767 C.2 0 **** 0.379
42737 O 133.891 36.546 106.051 O.2 0 **** -0.419
42738 H 117.578 33.8284 134.535 H 0 **** 0.053
42739 H 116.84 33.3863 132.998 H 0 **** 0.053
42740 H 115.578 34.8326 135.341 H 0 **** 0.053
42741 H 115.126 34.8545 133.645 H 0 **** 0.053
42742 H 114.429 32.7943 135.792 H 0 **** 0.053
42743 H 113.441 31.3407 134.056 H 0 **** 0.053
42744 H 115.996 31.0305 132.87 H 0 **** 0.053
42745 H 115.517 30.3628 134.427 H 0 **** 0.053
42746 H 114.922 32.9143 131.95 H 0 **** 0.053
42747 H 113.402 34.6651 132.295 H 0 **** 0.053
42748 H 111.544 32.6584 133.608 H 0 **** 0.053
42749 H 111.21 34.3858 133.446 H 0 **** 0.053
42750 H 112.274 33.5997 135.708 H 0 **** 0.053
42751 H 112.992 35.0093 134.937 H 0 **** 0.053
42752 H 112.006 33.424 129.175 H 0 **** 0.053
42753 H 112.083 31.2653 129.883 H 0 **** 0.053
42754 H 114.356 30.6 131.405 H 0 **** 0.053
42755 H 112.696 30.8547 131.959 H 0 **** 0.053
42756 H 114.603 34.2452 130.578 H 0 **** 0.053
42757 H 116.571 30.1138 126.177 H 0 **** 0.053
42758 H 116.762 30.0584 127.949 H 0 **** 0.053
42759 H 114.895 28.5055 127.298 H 0 **** 0.053
42760 H 114.18 29.7706 126.286 H 0 **** 0.053
42761 H 113.11 29.3566 128.7 H 0 **** 0.1268
42762 H 115.38 36.335 130.311 H 0 **** 0.053
42763 H 111.62 37.6219 127.829 H 0 **** 0.053
42764 H 111.17 37.941 129.543 H 0 **** 0.053
42765 H 111.41 35.4601 129.261 H 0 **** 0.1268
42766 H 111.986 40.1707 128.359 H 0 **** 0.053
42767 H 112.601 40.2876 130.026 H 0 **** 0.053
42768 H 113.937 41.8392 128.625 H 0 **** 0.053
42769 H 114.261 40.5497 127.447 H 0 **** 0.053
42770 H 116.403 37.8953 131.279 H 0 **** 0.053
42771 H 117.323 37.919 129.775 H 0 **** 0.053
42772 H 116.909 40.1799 131.778 H 0 **** 0.053
42773 H 118.22 40.2491 129.01 H 0 **** 0.053
42774 H 118.416 41.5407 130.2 H 0 **** 0.053
42775 H 116.517 41.9041 128.5 H 0 **** 0.053
42776 H 116.062 42.064 130.216 H 0 **** 0.053
42777 H 116.204 38.2014 127.569 H 0 **** 0.053
42778 H 119.789 38.892 123.552 H 0 **** 0.053
42779 H 121.321 39.0204 121.773 H 0 **** 0.053
42780 H 118.754 31.4305 123.814 H 0 **** 0.053
42781 H 125.682 38.9944 118.437 H 0 **** 0.053
42782 H 124.396 39.7879 120.195 H 0 **** 0.053
42783 H 122.114 40.0043 118.19 H 0 **** 0.053
42784 H 123.438 42.0764 118.43 H 0 **** 0.053
42785 H 123.839 42.0911 120.165 H 0 **** 0.053
42786 H 126.248 41.4391 119.473 H 0 **** 0.053
42787 H 125.795 43.0777 118.984 H 0 **** 0.053
42788 H 125.471 42.4797 116.723 H 0 **** 0.053
42789 H 124.112 40.6827 116.489 H 0 **** 0.053
42790 H 126.613 38.966 116.287 H 0 **** 0.053
42791 H 125.156 38.9055 115.266 H 0 **** 0.053
42792 H 125.785 41.1908 114.398 H 0 **** 0.053
42793 H 127.052 40.0211 114.037 H 0 **** 0.053
42794 H 127.618 42.4337 115.214 H 0 **** 0.053
42795 H 128.6 41.0127 115.539 H 0 **** 0.053
42796 H 127.652 40.7772 117.585 H 0 **** 0.353
42797 H 119.083 28.8835 120.371 H 0 **** 0.053
42798 H 119.192 28.4092 122.81 H 0 **** 0.053
42799 H 121.922 29.7145 123.015 H 0 **** 0.053
42800 H 121.141 28.5867 124.107 H 0 **** 0.053
42801 H 122.83 27.2051 123.141 H 0 **** 0.053
42802 H 122.77 28.0429 121.584 H 0 **** 0.053
42803 H 120.534 26.2228 122.637 H 0 **** 0.053
42804 H 121.763 25.6829 121.473 H 0 **** 0.053
42805 H 119.39 26.5083 120.559 H 0 **** 0.053
42806 H 120.861 27.0283 119.707 H 0 **** 0.053
42807 H 122.684 29.7356 118.504 H 0 **** 0.053
42808 H 124.254 29.9417 116.655 H 0 **** 0.053
42809 H 125.503 37.3054 116.729 H 0 **** 0.053
42810 H 126.692 37.4415 114.549 H 0 **** 0.053
42811 H 127.005 36.073 112.727 H 0 **** 0.053
42812 H 129.818 35.6547 113.908 H 0 **** 0.053
42813 H 128.493 38.2639 113.059 H 0 **** 0.053
42814 H 130.256 38.1023 113.234 H 0 **** 0.053
42815 H 128.739 38.9069 115.332 H 0 **** 0.053
42816 H 130.193 37.9267 115.567 H 0 **** 0.053
42817 H 127.959 37.1816 116.781 H 0 **** 0.053
42818 H 128.897 35.9161 115.982 H 0 **** 0.053
42819 H 118.551 38.3345 132.297 H 0 **** 0.053
42820 H 120.741 38.2777 131.175 H 0 **** 0.053
42821 H 120.257 39.5754 130.058 H 0 **** 0.053
42822 H 119.487 37.9758 129.954 H 0 **** 0.053
42823 H 118.682 40.5808 133.354 H 0 **** 0.053
42824 H 119.7 41.1677 132.017 H 0 **** 0.053
42825 H 120.305 39.897 133.108 H 0 **** 0.053
42826 H 120.845 40.1259 120.056 H 0 **** 0.41
42827 H 126.43 29.2568 113.725 H 0 **** 0.053
42828 H 127.46 28.1091 111.626 H 0 **** 0.053
42829 H 128.849 28.2613 109.498 H 0 **** 0.053
42830 H 130.274 28.3465 107.367 H 0 **** 0.053
42831 H 131.648 29.807 105.64 H 0 **** 0.053
42832 H 133.036 34.5509 105.367 H 0 **** 0.053
42833 H 132.561 32.1142 104.924 H 0 **** 0.053
42834 H 130.426 37.6653 111.194 H 0 **** 0.053
42835 H 130.485 38.5975 109.42 H 0 **** 0.053
42836 H 132.233 38.5657 109.719 H 0 **** 0.053
42837 H 131.749 40.0728 107.802 H 0 **** 0.053
42838 H 130.81 38.8045 107.009 H 0 **** 0.053
42839 H 133.828 38.6478 107.657 H 0 **** 0.053
42840 H 133.166 38.8567 106.019 H 0 **** 0.053
42841 C 31.214 176.76 175.442 C.2 0 **** 0
42842 C 30.5727 175.568 175.143 C.2 0 **** 0
42843 C 29.6876 175.506 174.079 C.2 0 **** 0
42844 C 29.4686 176.631 173.322 C.2 0 **** 0
42845 C 30.1499 177.814 173.583 C.2 0 **** 0
42846 C 31.0327 177.873 174.641 C.2 0 **** 0
42847 C 28.489 176.601 172.166 C.3 0 **** -0.106
42848 C 27.6329 175.358 171.966 C.2 0 **** 0
42849 C 27.8441 174.234 172.715 C.2 0 **** 0
42850 C 28.9624 174.203 173.755 C.3 0 **** -0.106
42851 C 27.0244 173.117 172.528 C.2 0 **** 0
42852 C 25.9571 173.151 171.652 C.2 0 **** 0
42853 C 25.8061 174.253 170.819 C.2 0 **** 0
42854 C 26.6296 175.374 170.981 C.2 0 **** 0
42855 C 26.4418 176.496 170.189 C.2 0 **** -0.1268
42856 C 25.3919 176.661 169.31 C.2 0 **** 0
42857 C 24.4794 175.548 169.278 C.2 0 **** 0
42858 C 24.8234 174.314 169.836 C.2 0 **** 0.042
42859 C 23.2114 175.627 168.404 C.3 0 **** 0
42860 C 22.9896 176.883 167.557 C.3 0 **** 0
42861 C 24.1346 177.914 167.49 C.2 0 **** 0
42862 C 25.2638 177.807 168.367 C.2 0 **** 0
42863 C 21.5077 177.268 167.362 C.3 0 **** -0.106
42864 C 20.7238 177.217 168.677 C.3 0 **** -0.053
42865 C 20.7283 175.785 169.295 C.3 0 **** -0.053
42866 C 21.9023 174.902 168.798 C.3 0 **** -0.106
42867 C 26.2897 178.753 168.17 C.2 0 **** 0.042
42868 C 26.1775 179.73 167.204 C.2 0 **** 0.052
42869 C 25.0809 179.783 166.357 C.2 0 **** 0.052
42870 C 24.0955 178.838 166.462 C.2 0 **** 0.042
42871 C 24.9368 180.833 165.286 C.2 0 **** 0.367
42872 C 26.043 181.83 165.18 C.2 0 **** 0
42873 C 27.1117 181.775 165.984 C.2 0 **** 0
42874 C 27.2737 180.752 167.045 C.2 0 **** 0.367
42875 C 28.2221 182.796 165.878 C.3 0 **** -0.106
42876 C 27.6109 184.171 165.511 C.3 0 **** -0.106
42877 C 26.7233 184.062 164.271 C.2 0 **** 0
42878 C 25.9307 182.902 164.111 C.2 0 **** 0.2405
42879 N 25.1022 182.742 163.058 N.2 0 **** -0.481
42880 C 24.9721 183.753 162.205 C.2 0 **** 0.2405
42881 C 25.7584 184.925 162.294 C.2 0 **** 0
42882 C 26.6447 185.061 163.332 C.2 0 **** 0
42883 C 27.5002 186.312 163.49 C.3 0 **** -0.106
42884 C 27.5531 187.161 162.214 C.3 0 **** -0.106
42885 C 26.1579 187.317 161.618 C.3 0 **** -0.106
42886 C 25.6226 185.939 161.185 C.3 0 **** -0.053
42887 C 24.1426 186.026 160.727 C.3 0 **** -0.106
42888 C 23.6262 184.649 160.407 C.2 0 **** 0
42889 C 24.0322 183.548 161.164 C.2 0 **** 0
42890 C 23.4998 182.279 160.875 C.2 0 **** -0.1268
42891 C 22.5633 182.144 159.869 C.2 0 **** -0.1268
42892 C 22.1242 183.236 159.142 C.2 0 **** 0
42893 C 22.6483 184.497 159.429 C.2 0 **** 0
42894 C 31.8182 179.132 174.906 C.3 0 **** -0.106
42895 C 31.0012 180.129 175.754 C.3 0 **** -0.159
42896 C 32.1138 176.831 176.649 C.3 0 **** -0.159
42897 C 29.8672 179.003 172.694 C.3 0 **** -0.159
42898 C 30.828 174.337 175.978 C.3 0 **** -0.159
42899 C 27.3225 171.874 173.367 C.3 0 **** -0.159
42900 C 25.0118 171.973 171.673 C.3 0 **** -0.159
42901 O 24.1243 173.202 169.46 O.3 0 **** -0.452
42902 C 19.4627 174.98 168.994 C.3 0 **** -0.159
42903 C 19.3197 177.77 168.406 C.3 0 **** -0.159
42904 O 23.0417 178.762 165.592 O.3 0 **** -0.452
42905 O 27.4158 178.709 168.926 O.3 0 **** -0.452
42906 O 28.2395 180.736 167.738 O.2 0 **** -0.419
42907 O 23.9607 180.879 164.596 O.2 0 **** -0.419
42908 C 22.138 185.707 158.665 C.3 0 **** -0.159
42909 C 21.0715 183.014 158.075 C.3 0 **** -0.159
42910 H 27.7946 177.462 172.303 H 0 **** 0.053
42911 H 29.0548 176.794 171.222 H 0 **** 0.053
42912 H 29.7264 173.458 173.425 H 0 **** 0.053
42913 H 28.531 173.811 174.702 H 0 **** 0.053
42914 H 27.1585 177.271 170.342 H 0 **** 0.1268
42915 H 21.4077 178.269 166.937 H 0 **** 0.053
42916 H 21.0988 176.551 166.646 H 0 **** 0.053
42917 H 21.2201 177.898 169.391 H 0 **** 0.053
42918 H 20.8183 175.9 170.383 H 0 **** 0.053
42919 H 21.6016 174.397 167.875 H 0 **** 0.053
42920 H 22.0869 174.127 169.551 H 0 **** 0.053
42921 H 28.8001 182.895 166.815 H 0 **** 0.053
42922 H 28.9318 182.464 165.101 H 0 **** 0.053
42923 H 28.448 184.88 165.39 H 0 **** 0.053
42924 H 27.024 184.543 166.378 H 0 **** 0.053
42925 H 27.0951 186.931 164.313 H 0 **** 0.053
42926 H 28.5394 186.059 163.767 H 0 **** 0.053
42927 H 28.2092 186.674 161.467 H 0 **** 0.053
42928 H 28.0022 188.149 162.425 H 0 **** 0.053
42929 H 26.166 188.006 160.752 H 0 **** 0.053
42930 H 25.4789 187.759 162.37 H 0 **** 0.053
42931 H 26.2329 185.602 160.312 H 0 **** 0.053
42932 H 23.5367 186.482 161.543 H 0 **** 0.053
42933 H 24.0835 186.726 159.866 H 0 **** 0.053
42934 H 23.8131 181.394 161.444 H 0 **** 0.1268
42935 H 22.1474 181.146 159.651 H 0 **** 0.1268
42936 H 32.1388 179.629 173.97 H 0 **** 0.053
42937 H 32.7731 178.927 175.422 H 0 **** 0.053
42938 H 30.7096 179.683 176.72 H 0 **** 0.053
42939 H 30.0808 180.441 175.234 H 0 **** 0.053
42940 H 31.5805 181.048 175.977 H 0 **** 0.053
42941 H 31.8033 176.142 177.459 H 0 **** 0.053
42942 H 32.1154 177.829 177.126 H 0 **** 0.053
42943 H 33.1691 176.585 176.397 H 0 **** 0.053
42944 H 28.7999 179.314 172.754 H 0 **** 0.053
42945 H 30.0806 178.781 171.626 H 0 **** 0.053
42946 H 30.4437 179.909 172.931 H 0 **** 0.053
42947 H 30.6455 173.389 175.436 H 0 **** 0.053
42948 H 30.1843 174.316 176.885 H 0 **** 0.053
42949 H 31.8792 174.267 176.317 H 0 **** 0.053
42950 H 27.0747 170.937 172.839 H 0 **** 0.053
42951 H 26.7615 171.879 174.33 H 0 **** 0.053
42952 H 28.4006 171.764 173.624 H 0 **** 0.053
42953 H 23.9469 172.29 171.614 H 0 **** 0.053
42954 H 25.036 171.366 172.619 H 0 **** 0.053
42955 H 25.1893 171.249 170.836 H 0 **** 0.053
42956 H 23.686 173.372 168.622 H 0 **** 0.41
42957 H 18.571 175.443 169.437 H 0 **** 0.053
42958 H 19.5451 173.959 169.414 H 0 **** 0.053
42959 H 19.3019 174.874 167.903 H 0 **** 0.053
42960 H 19.3749 178.813 168.041 H 0 **** 0.053
42961 H 18.7066 177.773 169.32 H 0 **** 0.053
42962 H 18.7934 177.183 167.628 H 0 **** 0.053
42963 H 23.0704 179.539 165.013 H 0 **** 0.41
42964 H 28.0007 179.445 168.694 H 0 **** 0.41
42965 H 21.8457 186.525 159.35 H 0 **** 0.053
42966 H 21.2395 185.499 158.054 H 0 **** 0.053
42967 H 22.9043 186.106 157.969 H 0 **** 0.053
42968 H 20.1332 183.552 158.303 H 0 **** 0.053
42969 H 20.8028 181.948 157.972 H 0 **** 0.053
42970 H 21.4166 183.348 157.081 H 0 **** 0.053
42971 C 33.5467 168.6 186.294 C.2 0 **** 0
42972 C 34.8387 168.098 186.272 C.2 0 **** 0
42973 C 35.9164 168.951 186.446 C.2 0 **** 0
42974 C 35.686 170.289 186.653 C.2 0 **** 0
42975 C 34.392 170.79 186.731 C.2 0 **** 0
42976 C 33.3202 169.938 186.561 C.2 0 **** 0
42977 C 36.8445 171.251 186.823 C.3 0 **** -0.106
42978 C 38.2599 170.739 186.594 C.2 0 **** 0
42979 C 38.4974 169.408 186.386 C.2 0 **** 0
42980 C 37.3426 168.409 186.403 C.3 0 **** -0.106
42981 C 39.8044 168.97 186.151 C.2 0 **** 0
42982 C 40.8514 169.865 186.05 C.2 0 **** 0
42983 C 40.6271 171.201 186.361 C.2 0 **** 0
42984 C 39.3271 171.653 186.617 C.2 0 **** 0
42985 C 39.0943 172.996 186.871 C.2 0 **** -0.1268
42986 C 40.0495 173.986 186.763 C.2 0 **** 0
42987 C 41.3424 173.503 186.353 C.2 0 **** 0
42988 C 41.6528 172.141 186.39 C.2 0 **** 0.042
42989 C 42.4861 174.507 186.106 C.3 0 **** 0
42990 C 42.2164 175.993 186.355 C.3 0 **** 0
42991 C 40.8732 176.378 187.007 C.2 0 **** 0
42992 C 39.8324 175.404 187.162 C.2 0 **** 0
42993 C 42.9977 176.948 185.428 C.3 0 **** -0.106
42994 C 42.9326 176.505 183.963 C.3 0 **** -0.053
42995 C 43.5537 175.09 183.76 C.3 0 **** -0.053
42996 C 43.5937 174.241 185.058 C.3 0 **** -0.106
42997 C 38.6766 175.839 187.841 C.2 0 **** 0.042
42998 C 38.5668 177.136 188.295 C.2 0 **** 0.052
42999 C 39.6074 178.041 188.151 C.2 0 **** 0.052
43000 C 40.7789 177.64 187.565 C.2 0 **** 0.042
43001 C 39.519 179.46 188.647 C.2 0 **** 0.367
43002 C 38.2393 179.854 189.307 C.2 0 **** 0
43003 C 37.2365 178.982 189.463 C.2 0 **** 0
43004 C 37.3008 177.581 188.982 C.2 0 **** 0.367
43005 C 35.9392 179.393 190.122 C.3 0 **** -0.106
43006 C 35.6235 180.862 189.743 C.3 0 **** -0.106
43007 C 36.8119 181.773 190.049 C.2 0 **** 0
43008 C 38.1157 181.278 189.819 C.2 0 **** 0.2405
43009 N 39.2151 182.03 190.04 N.2 0 **** -0.481
43010 C 39.0437 183.299 190.396 C.2 0 **** 0.2405
43011 C 37.7678 183.844 190.67 C.2 0 **** 0
43012 C 36.6543 183.059 190.503 C.2 0 **** 0
43013 C 35.2538 183.601 190.761 C.3 0 **** -0.106
43014 C 35.2595 184.904 191.571 C.3 0 **** -0.106
43015 C 36.3108 185.865 191.027 C.3 0 **** -0.106
43016 C 37.7135 185.253 191.204 C.3 0 **** -0.053
43017 C 38.7997 186.121 190.515 C.3 0 **** -0.106
43018 C 40.1391 185.442 190.625 C.2 0 **** 0
43019 C 40.236 184.052 190.54 C.2 0 **** 0
43020 C 41.503 183.445 190.598 C.2 0 **** -0.1268
43021 C 42.6335 184.231 190.708 C.2 0 **** -0.1268
43022 C 42.5487 185.612 190.749 C.2 0 **** 0
43023 C 41.2934 186.216 190.689 C.2 0 **** 0
43024 C 31.9105 170.455 186.695 C.3 0 **** -0.106
43025 C 31.4148 171.068 185.368 C.3 0 **** -0.159
43026 C 32.39 167.672 186.027 C.3 0 **** -0.159
43027 C 34.221 172.271 186.98 C.3 0 **** -0.159
43028 C 35.0778 166.624 186.051 C.3 0 **** -0.159
43029 C 40.022 167.469 185.958 C.3 0 **** -0.159
43030 C 42.1819 169.317 185.591 C.3 0 **** -0.159
43031 O 42.9655 171.762 186.366 O.3 0 **** -0.452
43032 C 44.9966 175.117 183.252 C.3 0 **** -0.159
43033 C 43.5924 177.598 183.114 C.3 0 **** -0.159
43034 O 41.8848 178.443 187.489 O.3 0 **** -0.452
43035 O 37.6537 174.978 188.071 O.3 0 **** -0.452
43036 O 36.3882 176.837 189.138 O.2 0 **** -0.419
43037 O 40.4179 180.231 188.473 O.2 0 **** -0.419
43038 C 41.1964 187.733 190.689 C.3 0 **** -0.159
43039 C 43.8349 186.408 190.838 C.3 0 **** -0.159
43040 H 36.6783 172.093 186.112 H 0 **** 0.053
43041 H 36.7907 171.686 187.851 H 0 **** 0.053
43042 H 37.4787 167.732 187.281 H 0 **** 0.053
43043 H 37.4351 167.771 185.497 H 0 **** 0.053
43044 H 38.0839 173.232 187.119 H 0 **** 0.1268
43045 H 42.6209 177.97 185.499 H 0 **** 0.053
43046 H 44.0306 176.939 185.783 H 0 **** 0.053
43047 H 41.8673 176.454 183.674 H 0 **** 0.053
43048 H 42.9337 174.564 183.022 H 0 **** 0.053
43049 H 44.5176 174.462 185.6 H 0 **** 0.053
43050 H 43.626 173.183 184.772 H 0 **** 0.053
43051 H 35.089 178.752 189.826 H 0 **** 0.053
43052 H 36.0504 179.287 191.215 H 0 **** 0.053
43053 H 34.7018 181.147 190.279 H 0 **** 0.053
43054 H 35.369 180.903 188.663 H 0 **** 0.053
43055 H 34.7481 183.784 189.794 H 0 **** 0.053
43056 H 34.6316 182.87 191.308 H 0 **** 0.053
43057 H 35.4885 184.684 192.631 H 0 **** 0.053
43058 H 34.2571 185.371 191.559 H 0 **** 0.053
43059 H 36.2614 186.846 191.539 H 0 **** 0.053
43060 H 36.1226 186.056 189.955 H 0 **** 0.053
43061 H 37.9345 185.232 192.299 H 0 **** 0.053
43062 H 38.5274 186.26 189.444 H 0 **** 0.053
43063 H 38.7833 187.133 190.976 H 0 **** 0.053
43064 H 41.6071 182.353 190.55 H 0 **** 0.1268
43065 H 43.6232 183.748 190.749 H 0 **** 0.1268
43066 H 31.8168 171.209 187.5 H 0 **** 0.053
43067 H 31.2045 169.664 187.006 H 0 **** 0.053
43068 H 31.4455 170.326 184.553 H 0 **** 0.053
43069 H 32.0344 171.928 185.066 H 0 **** 0.053
43070 H 30.3694 171.427 185.448 H 0 **** 0.053
43071 H 32.6553 166.836 185.351 H 0 **** 0.053
43072 H 31.5442 168.174 185.521 H 0 **** 0.053
43073 H 31.9917 167.222 186.963 H 0 **** 0.053
43074 H 34.6718 172.877 186.163 H 0 **** 0.053
43075 H 34.7075 172.589 187.927 H 0 **** 0.053
43076 H 33.1783 172.614 187.05 H 0 **** 0.053
43077 H 36.0354 166.263 186.474 H 0 **** 0.053
43078 H 35.0887 166.368 184.969 H 0 **** 0.053
43079 H 34.3051 165.994 186.532 H 0 **** 0.053
43080 H 41.0079 167.133 186.325 H 0 **** 0.053
43081 H 39.9401 167.172 184.887 H 0 **** 0.053
43082 H 39.2951 166.842 186.522 H 0 **** 0.053
43083 H 42.6813 169.991 184.859 H 0 **** 0.053
43084 H 42.1231 168.345 185.03 H 0 **** 0.053
43085 H 42.9036 169.146 186.432 H 0 **** 0.053
43086 H 43.5145 172.494 186.658 H 0 **** 0.41
43087 H 45.0677 175.569 182.254 H 0 **** 0.053
43088 H 45.399 174.089 183.177 H 0 **** 0.053
43089 H 45.6564 175.678 183.943 H 0 **** 0.053
43090 H 43.0644 178.562 183.241 H 0 **** 0.053
43091 H 43.5666 177.345 182.044 H 0 **** 0.053
43092 H 44.6463 177.766 183.414 H 0 **** 0.053
43093 H 41.6371 179.329 187.793 H 0 **** 0.41
43094 H 36.9225 175.437 188.51 H 0 **** 0.41
43095 H 40.5563 188.098 189.864 H 0 **** 0.053
43096 H 42.1708 188.24 190.553 H 0 **** 0.053
43097 H 40.7742 188.117 191.641 H 0 **** 0.053
43098 H 43.9848 187.048 189.949 H 0 **** 0.053
43099 H 44.7234 185.756 190.906 H 0 **** 0.053
43100 H 43.8538 187.06 191.728 H 0 **** 0.053
43101 C 42.3718 119.158 152.258 C.2 0 **** 0
43102 C 42.2268 119.868 153.439 C.2 0 **** 0
43103 C 41.3692 119.405 154.424 C.2 0 **** 0
43104 C 40.6831 118.234 154.22 C.2 0 **** 0
43105 C 40.8666 117.488 153.062 C.2 0 **** 0
43106 C 41.7222 117.949 152.083 C.2 0 **** 0
43107 C 39.721 117.713 155.269 C.3 0 **** -0.106
43108 C 39.4035 118.593 156.471 C.2 0 **** 0
43109 C 40.0815 119.762 156.681 C.2 0 **** 0
43110 C 41.1883 120.192 155.72 C.3 0 **** -0.106
43111 C 39.7502 120.563 157.778 C.2 0 **** 0
43112 C 38.7004 120.235 158.613 C.2 0 **** 0
43113 C 38.0802 119 158.46 C.2 0 **** 0
43114 C 38.4125 118.177 157.377 C.2 0 **** 0
43115 C 37.7542 116.971 157.191 C.2 0 **** -0.1268
43116 C 36.6694 116.554 157.935 C.2 0 **** 0
43117 C 36.2608 117.495 158.945 C.2 0 **** 0
43118 C 37.0907 118.551 159.33 C.2 0 **** 0.042
43119 C 35.0087 117.202 159.796 C.3 0 **** 0
43120 C 34.2636 115.885 159.564 C.3 0 **** 0
43121 C 34.9115 114.852 158.621 C.2 0 **** 0
43122 C 36.0467 115.206 157.821 C.2 0 **** 0
43123 C 32.7394 115.965 159.795 C.3 0 **** -0.106
43124 C 32.1218 117.195 159.123 C.3 0 **** -0.053
43125 C 32.721 118.521 159.685 C.3 0 **** -0.053
43126 C 34.1124 118.337 160.347 C.3 0 **** -0.106
43127 C 36.6101 114.166 157.054 C.2 0 **** 0.042
43128 C 36.0661 112.9 157.068 C.2 0 **** 0.052
43129 C 34.9838 112.589 157.878 C.2 0 **** 0.052
43130 C 34.4518 113.549 158.697 C.2 0 **** 0.042
43131 C 34.3763 111.212 157.922 C.2 0 **** 0.367
43132 C 34.9994 110.183 157.038 C.2 0 **** 0
43133 C 36.0535 110.471 156.266 C.2 0 **** 0
43134 C 36.6671 111.819 156.205 C.2 0 **** 0.367
43135 C 36.6715 109.426 155.365 C.3 0 **** -0.106
43136 C 35.5519 108.505 154.819 C.3 0 **** -0.106
43137 C 34.6999 107.944 155.957 C.2 0 **** 0
43138 C 34.412 108.783 157.058 C.2 0 **** 0.2405
43139 N 33.6447 108.371 158.089 N.2 0 **** -0.481
43140 C 33.0793 107.171 158.008 C.2 0 **** 0.2405
43141 C 33.3524 106.275 156.949 C.2 0 **** 0
43142 C 34.1802 106.674 155.93 C.2 0 **** 0
43143 C 34.4906 105.758 154.752 C.3 0 **** -0.106
43144 C 34.1284 104.293 155.026 C.3 0 **** -0.106
43145 C 32.7475 104.195 155.666 C.3 0 **** -0.106
43146 C 32.7634 104.889 157.041 C.3 0 **** -0.053
43147 C 31.3401 104.96 157.655 C.3 0 **** -0.106
43148 C 31.3802 105.73 158.948 C.2 0 **** 0
43149 C 32.2289 106.829 159.089 C.2 0 **** 0
43150 C 32.2143 107.561 160.29 C.2 0 **** -0.1268
43151 C 31.3423 107.201 161.3 C.2 0 **** -0.1268
43152 C 30.468 106.139 161.15 C.2 0 **** 0
43153 C 30.4785 105.414 159.959 C.2 0 **** 0
43154 C 41.9724 117.128 150.843 C.3 0 **** -0.106
43155 C 40.8876 117.386 149.776 C.3 0 **** -0.159
43156 C 43.2486 119.714 151.166 C.3 0 **** -0.159
43157 C 40.0889 116.2 152.919 C.3 0 **** -0.159
43158 C 42.9937 121.15 153.654 C.3 0 **** -0.159
43159 C 40.5607 121.842 157.988 C.3 0 **** -0.159
43160 C 38.2916 121.263 159.64 C.3 0 **** -0.159
43161 O 36.8548 119.177 160.521 O.3 0 **** -0.452
43162 C 31.8522 119.187 160.754 C.3 0 **** -0.159
43163 C 30.5991 117.093 159.27 C.3 0 **** -0.159
43164 O 33.4572 113.288 159.601 O.3 0 **** -0.452
43165 O 37.7111 114.395 156.295 O.3 0 **** -0.452
43166 O 37.6022 112.037 155.506 O.2 0 **** -0.419
43167 O 33.4167 110.983 158.599 O.2 0 **** -0.419
43168 C 29.4908 104.274 159.772 C.3 0 **** -0.159
43169 C 29.5192 105.824 162.289 C.3 0 **** -0.159
43170 H 38.7571 117.499 154.752 H 0 **** 0.053
43171 H 40.1067 116.733 155.643 H 0 **** 0.053
43172 H 42.159 120.172 156.272 H 0 **** 0.053
43173 H 41.0047 121.254 155.448 H 0 **** 0.053
43174 H 38.122 116.386 156.379 H 0 **** 0.1268
43175 H 32.232 115.074 159.421 H 0 **** 0.053
43176 H 32.5978 116.01 160.877 H 0 **** 0.053
43177 H 32.3595 117.145 158.046 H 0 **** 0.053
43178 H 32.8288 119.214 158.841 H 0 **** 0.053
43179 H 33.9752 118.069 161.398 H 0 **** 0.053
43180 H 34.6312 119.303 160.32 H 0 **** 0.053
43181 H 37.2239 109.868 154.516 H 0 **** 0.053
43182 H 37.4034 108.844 155.951 H 0 **** 0.053
43183 H 36.0388 107.724 154.209 H 0 **** 0.053
43184 H 34.9233 109.09 154.113 H 0 **** 0.053
43185 H 33.9304 106.103 153.862 H 0 **** 0.053
43186 H 35.5617 105.793 154.483 H 0 **** 0.053
43187 H 34.8735 103.845 155.711 H 0 **** 0.053
43188 H 34.1708 103.703 154.092 H 0 **** 0.053
43189 H 32.4327 103.14 155.781 H 0 **** 0.053
43190 H 31.9995 104.681 155.014 H 0 **** 0.053
43191 H 33.4002 104.271 157.721 H 0 **** 0.053
43192 H 30.6578 105.462 156.932 H 0 **** 0.053
43193 H 30.9593 103.922 157.776 H 0 **** 0.053
43194 H 32.8823 108.42 160.434 H 0 **** 0.1268
43195 H 31.3332 107.781 162.237 H 0 **** 0.1268
43196 H 42.0154 116.043 151.063 H 0 **** 0.053
43197 H 42.9627 117.334 150.4 H 0 **** 0.053
43198 H 40.8537 118.451 149.495 H 0 **** 0.053
43199 H 39.8871 117.101 150.141 H 0 **** 0.053
43200 H 41.0772 116.806 148.85 H 0 **** 0.053
43201 H 43.2845 120.821 151.162 H 0 **** 0.053
43202 H 42.8938 119.449 150.152 H 0 **** 0.053
43203 H 44.2976 119.354 151.253 H 0 **** 0.053
43204 H 38.9909 116.383 152.924 H 0 **** 0.053
43205 H 40.3041 115.493 153.75 H 0 **** 0.053
43206 H 40.2822 115.639 151.993 H 0 **** 0.053
43207 H 43.1604 121.393 154.722 H 0 **** 0.053
43208 H 42.4681 122.022 153.206 H 0 **** 0.053
43209 H 44.0085 121.115 153.214 H 0 **** 0.053
43210 H 40.664 122.109 159.054 H 0 **** 0.053
43211 H 40.1051 122.714 157.465 H 0 **** 0.053
43212 H 41.6112 121.764 157.626 H 0 **** 0.053
43213 H 37.1859 121.355 159.723 H 0 **** 0.053
43214 H 38.6102 122.315 159.407 H 0 **** 0.053
43215 H 38.6837 121.043 160.667 H 0 **** 0.053
43216 H 36.3467 118.598 161.095 H 0 **** 0.41
43217 H 30.8819 119.502 160.349 H 0 **** 0.053
43218 H 32.3518 120.091 161.151 H 0 **** 0.053
43219 H 31.6755 118.507 161.611 H 0 **** 0.053
43220 H 30.2219 116.172 158.789 H 0 **** 0.053
43221 H 30.0936 117.946 158.793 H 0 **** 0.053
43222 H 30.295 117.05 160.334 H 0 **** 0.053
43223 H 33.1466 112.382 159.455 H 0 **** 0.41
43224 H 37.9488 113.596 155.802 H 0 **** 0.41
43225 H 28.9477 104.362 158.813 H 0 **** 0.053
43226 H 28.7068 104.234 160.552 H 0 **** 0.053
43227 H 29.9959 103.286 159.786 H 0 **** 0.053
43228 H 28.4622 105.95 161.992 H 0 **** 0.053
43229 H 29.6796 106.484 163.159 H 0 **** 0.053
43230 H 29.6435 104.789 162.654 H 0 **** 0.053
43231 C 38.2868 101.54 134.765 C.2 0 **** 0
43232 C 37.5276 101.129 135.849 C.2 0 **** 0
43233 C 36.3706 100.394 135.646 C.2 0 **** 0
43234 C 35.9988 100.069 134.365 C.2 0 **** 0
43235 C 36.7846 100.43 133.277 C.2 0 **** 0
43236 C 37.9375 101.159 133.481 C.2 0 **** 0
43237 C 34.7268 99.2856 134.109 C.3 0 **** -0.106
43238 C 33.7882 99.014 135.277 C.2 0 **** 0
43239 C 34.1507 99.3354 136.556 C.2 0 **** 0
43240 C 35.5188 99.9543 136.834 C.3 0 **** -0.106
43241 C 33.2577 99.0988 137.606 C.2 0 **** 0
43242 C 31.9862 98.6157 137.368 C.2 0 **** 0
43243 C 31.6555 98.1949 136.085 C.2 0 **** 0
43244 C 32.5455 98.4078 135.025 C.2 0 **** 0
43245 C 32.1934 98.0399 133.735 C.2 0 **** -0.1268
43246 C 30.9441 97.5832 133.37 C.2 0 **** 0
43247 C 30.0072 97.518 134.461 C.2 0 **** 0
43248 C 30.4347 97.5954 135.789 C.2 0 **** 0.042
43249 C 28.5469 97.1083 134.186 C.3 0 **** 0
43250 C 28.1527 96.7326 132.755 C.3 0 **** 0
43251 C 29.279 96.6202 131.708 C.2 0 **** 0
43252 C 30.6064 97.067 132.014 C.2 0 **** 0
43253 C 26.6998 97.0905 132.379 C.3 0 **** -0.106
43254 C 26.3324 98.5113 132.815 C.3 0 **** -0.053
43255 C 26.4385 98.6906 134.359 C.3 0 **** -0.053
43256 C 27.3727 97.653 135.035 C.3 0 **** -0.106
43257 C 31.5776 96.8433 131.018 C.2 0 **** 0.042
43258 C 31.2393 96.2557 129.817 C.2 0 **** 0.052
43259 C 29.9489 95.812 129.57 C.2 0 **** 0.052
43260 C 28.9906 95.9381 130.54 C.2 0 **** 0.042
43261 C 29.5545 95.1556 128.272 C.2 0 **** 0.367
43262 C 30.6309 95.0066 127.249 C.2 0 **** 0
43263 C 31.882 95.4183 127.487 C.2 0 **** 0
43264 C 32.2926 96.0676 128.755 C.2 0 **** 0.367
43265 C 32.9641 95.274 126.441 C.3 0 **** -0.106
43266 C 32.3421 95.4873 125.039 C.3 0 **** -0.106
43267 C 31.1299 94.5782 124.834 C.2 0 **** 0
43268 C 30.2682 94.3487 125.93 C.2 0 **** 0.2405
43269 N 29.1619 93.5821 125.823 N.2 0 **** -0.481
43270 C 28.8434 93.11 124.622 C.2 0 **** 0.2405
43271 C 29.6785 93.2817 123.493 C.2 0 **** 0
43272 C 30.8333 94.0121 123.619 C.2 0 **** 0
43273 C 31.7587 94.2471 122.431 C.3 0 **** -0.106
43274 C 31.4825 93.2926 121.263 C.3 0 **** -0.106
43275 C 29.9842 93.1999 120.993 C.3 0 **** -0.106
43276 C 29.278 92.5865 122.216 C.3 0 **** -0.053
43277 C 27.7351 92.615 122.058 C.3 0 **** -0.106
43278 C 27.0808 92.0968 123.312 C.2 0 **** 0
43279 C 27.632 92.3753 124.564 C.2 0 **** 0
43280 C 26.9749 91.9231 125.722 C.2 0 **** -0.1268
43281 C 25.7835 91.2332 125.608 C.2 0 **** -0.1268
43282 C 25.2093 90.9894 124.373 C.2 0 **** 0
43283 C 25.8564 91.4419 123.223 C.2 0 **** 0
43284 C 38.8278 101.514 132.318 C.3 0 **** -0.106
43285 C 38.3414 102.801 131.618 C.3 0 **** -0.159
43286 C 39.4994 102.403 134.998 C.3 0 **** -0.159
43287 C 36.317 100.019 131.9 C.3 0 **** -0.159
43288 C 37.9518 101.486 137.253 C.3 0 **** -0.159
43289 C 33.7234 99.4436 139.021 C.3 0 **** -0.159
43290 C 31.0307 98.5896 138.538 C.3 0 **** -0.159
43291 O 29.6018 97.1545 136.779 O.3 0 **** -0.452
43292 C 25.1004 98.5653 135.092 C.3 0 **** -0.159
43293 C 24.9429 98.8217 132.255 C.3 0 **** -0.159
43294 O 27.7292 95.4224 130.41 O.3 0 **** -0.452
43295 O 32.871 97.1917 131.232 O.3 0 **** -0.452
43296 O 33.4141 96.4202 128.929 O.2 0 **** -0.419
43297 O 28.4237 94.8169 128.073 O.2 0 **** -0.419
43298 C 25.2081 91.2183 121.867 C.3 0 **** -0.159
43299 C 23.883 90.2564 124.328 C.3 0 **** -0.159
43300 H 34.1455 99.8464 133.341 H 0 **** 0.053
43301 H 35.0046 98.3072 133.646 H 0 **** 0.053
43302 H 36.117 99.2272 137.435 H 0 **** 0.053
43303 H 35.3609 100.843 137.484 H 0 **** 0.053
43304 H 32.9607 98.182 133.008 H 0 **** 0.1268
43305 H 26.5308 97.0021 131.305 H 0 **** 0.053
43306 H 26.0652 96.3602 132.887 H 0 **** 0.053
43307 H 27.0463 99.2069 132.34 H 0 **** 0.053
43308 H 26.8445 99.6938 134.544 H 0 **** 0.053
43309 H 26.7941 96.7571 135.278 H 0 **** 0.053
43310 H 27.7285 98.0805 135.98 H 0 **** 0.053
43311 H 33.7927 95.9917 126.583 H 0 **** 0.053
43312 H 33.4015 94.2638 126.524 H 0 **** 0.053
43313 H 33.1429 95.3251 124.297 H 0 **** 0.053
43314 H 32.0496 96.5543 124.938 H 0 **** 0.053
43315 H 31.6404 95.2887 122.076 H 0 **** 0.053
43316 H 32.8199 94.13 122.716 H 0 **** 0.053
43317 H 31.8677 92.2838 121.506 H 0 **** 0.053
43318 H 32.0242 93.6227 120.357 H 0 **** 0.053
43319 H 29.7762 92.5865 120.096 H 0 **** 0.053
43320 H 29.5763 94.2071 120.795 H 0 **** 0.053
43321 H 29.5977 91.5201 122.269 H 0 **** 0.053
43322 H 27.4118 93.6627 121.864 H 0 **** 0.053
43323 H 27.4659 92.0301 121.152 H 0 **** 0.053
43324 H 27.3985 92.1133 126.716 H 0 **** 0.1268
43325 H 25.273 90.8837 126.519 H 0 **** 0.1268
43326 H 38.8888 100.697 131.574 H 0 **** 0.053
43327 H 39.8796 101.654 132.625 H 0 **** 0.053
43328 H 38.3195 103.651 132.321 H 0 **** 0.053
43329 H 37.3266 102.676 131.206 H 0 **** 0.053
43330 H 39.0055 103.085 130.778 H 0 **** 0.053
43331 H 39.4027 103.05 135.891 H 0 **** 0.053
43332 H 39.6886 103.111 134.168 H 0 **** 0.053
43333 H 40.4237 101.798 135.13 H 0 **** 0.053
43334 H 35.3296 100.469 131.652 H 0 **** 0.053
43335 H 36.2017 98.9167 131.814 H 0 **** 0.053
43336 H 36.982 100.314 131.075 H 0 **** 0.053
43337 H 37.5737 100.785 138.022 H 0 **** 0.053
43338 H 37.5977 102.5 137.542 H 0 **** 0.053
43339 H 39.0514 101.472 137.378 H 0 **** 0.053
43340 H 33.2871 98.7767 139.786 H 0 **** 0.053
43341 H 33.4653 100.491 139.299 H 0 **** 0.053
43342 H 34.8229 99.3356 139.162 H 0 **** 0.053
43343 H 30.0113 98.9313 138.251 H 0 **** 0.053
43344 H 31.2969 99.2855 139.379 H 0 **** 0.053
43345 H 30.923 97.5734 138.999 H 0 **** 0.053
43346 H 28.9548 96.5499 136.406 H 0 **** 0.41
43347 H 24.3989 99.3568 134.796 H 0 **** 0.053
43348 H 25.2489 98.6494 136.185 H 0 **** 0.053
43349 H 24.6262 97.5827 134.9 H 0 **** 0.053
43350 H 24.9421 98.7544 131.151 H 0 **** 0.053
43351 H 24.6246 99.8396 132.524 H 0 **** 0.053
43352 H 24.1868 98.0997 132.623 H 0 **** 0.053
43353 H 27.6251 95.1038 129.501 H 0 **** 0.41
43354 H 33.3986 97.0164 130.438 H 0 **** 0.41
43355 H 25.1677 92.1538 121.278 H 0 **** 0.053
43356 H 24.1619 90.8626 121.928 H 0 **** 0.053
43357 H 25.7601 90.465 121.268 H 0 **** 0.053
43358 H 23.079 90.8856 123.905 H 0 **** 0.053
43359 H 23.543 89.9512 125.334 H 0 **** 0.053
43360 H 23.9431 89.3348 123.723 H 0 **** 0.053
43361 C 22.5151 164.871 146.417 C.2 0 **** 0
43362 C 22.3971 166.183 146.849 C.2 0 **** 0
43363 C 23.0025 167.205 146.135 C.2 0 **** 0
43364 C 23.7024 166.901 144.993 C.2 0 **** 0
43365 C 23.7782 165.595 144.524 C.2 0 **** 0
43366 C 23.1728 164.58 145.235 C.2 0 **** 0
43367 C 24.3942 167.992 144.203 C.3 0 **** -0.106
43368 C 24.4404 169.399 144.785 C.2 0 **** 0
43369 C 23.7474 169.708 145.922 C.2 0 **** 0
43370 C 22.8935 168.649 146.615 C.3 0 **** -0.106
43371 C 23.8308 171.002 146.448 C.2 0 **** 0
43372 C 24.6604 171.952 145.885 C.2 0 **** 0
43373 C 25.2873 171.662 144.679 C.2 0 **** 0
43374 C 25.1942 170.383 144.123 C.2 0 **** 0
43375 C 25.8635 170.082 142.946 C.2 0 **** -0.1268
43376 C 26.7469 170.934 142.315 C.2 0 **** 0
43377 C 26.9326 172.187 142.993 C.2 0 **** 0
43378 C 26.0629 172.594 144.002 C.2 0 **** 0.042
43379 C 27.9512 173.209 142.45 C.3 0 **** 0
43380 C 28.7105 172.866 141.166 C.3 0 **** 0
43381 C 28.2824 171.598 140.4 C.2 0 **** 0
43382 C 27.3632 170.666 140.986 C.2 0 **** 0
43383 C 30.1444 173.435 141.102 C.3 0 **** -0.106
43384 C 30.913 173.205 142.407 C.3 0 **** -0.053
43385 C 30.2186 173.901 143.616 C.3 0 **** -0.053
43386 C 28.7126 174.184 143.382 C.3 0 **** -0.106
43387 C 26.9762 169.584 140.169 C.2 0 **** 0.042
43388 C 27.4884 169.437 138.898 C.2 0 **** 0.052
43389 C 28.3545 170.375 138.357 C.2 0 **** 0.052
43390 C 28.6966 171.484 139.085 C.2 0 **** 0.042
43391 C 28.9194 170.245 136.968 C.2 0 **** 0.367
43392 C 28.5007 169.042 136.191 C.2 0 **** 0
43393 C 27.6532 168.14 136.701 C.2 0 **** 0
43394 C 27.0861 168.246 138.066 C.2 0 **** 0.367
43395 C 27.244 166.917 135.912 C.3 0 **** -0.106
43396 C 28.4493 166.441 135.063 C.3 0 **** -0.106
43397 C 29.0136 167.585 134.22 C.2 0 **** 0
43398 C 29.0517 168.88 134.786 C.2 0 **** 0.2405
43399 N 29.558 169.938 134.117 N.2 0 **** -0.481
43400 C 30.1144 169.718 132.93 C.2 0 **** 0.2405
43401 C 30.0804 168.453 132.298 C.2 0 **** 0
43402 C 29.5138 167.392 132.957 C.2 0 **** 0
43403 C 29.4735 166.005 132.333 C.3 0 **** -0.106
43404 C 29.7372 166.017 130.823 C.3 0 **** -0.106
43405 C 30.9347 166.905 130.505 C.3 0 **** -0.106
43406 C 30.6151 168.362 130.89 C.3 0 **** -0.053
43407 C 31.8624 169.272 130.742 C.3 0 **** -0.106
43408 C 31.5387 170.663 131.22 C.2 0 **** 0
43409 C 30.693 170.856 132.314 C.2 0 **** 0
43410 C 30.443 172.162 132.771 C.2 0 **** -0.1268
43411 C 31.0588 173.232 132.151 C.2 0 **** -0.1268
43412 C 31.9313 173.046 131.093 C.2 0 **** 0
43413 C 32.1832 171.751 130.641 C.2 0 **** 0
43414 C 23.2009 163.166 144.714 C.3 0 **** -0.106
43415 C 24.5028 162.447 145.126 C.3 0 **** -0.159
43416 C 21.9165 163.765 147.246 C.3 0 **** -0.159
43417 C 24.5526 165.345 143.25 C.3 0 **** -0.159
43418 C 21.6175 166.504 148.101 C.3 0 **** -0.159
43419 C 23.0093 171.309 147.701 C.3 0 **** -0.159
43420 C 24.8354 173.247 146.644 C.3 0 **** -0.159
43421 O 26.0643 173.905 144.363 O.3 0 **** -0.452
43422 C 30.8296 175.254 143.985 C.3 0 **** -0.159
43423 C 32.3614 173.655 142.183 C.3 0 **** -0.159
43424 O 29.4525 172.505 138.576 O.3 0 **** -0.452
43425 O 26.0769 168.675 140.622 O.3 0 **** -0.452
43426 O 26.3357 167.426 138.486 O.2 0 **** -0.419
43427 O 29.6957 171.051 136.541 O.2 0 **** -0.419
43428 C 33.1736 171.537 129.509 C.3 0 **** -0.159
43429 C 32.5925 174.266 130.485 C.3 0 **** -0.159
43430 H 25.4484 167.666 144.045 H 0 **** 0.053
43431 H 23.9228 168.046 143.191 H 0 **** 0.053
43432 H 21.823 168.957 146.537 H 0 **** 0.053
43433 H 23.1476 168.667 147.697 H 0 **** 0.053
43434 H 25.6829 169.098 142.571 H 0 **** 0.1268
43435 H 30.7127 172.993 140.282 H 0 **** 0.053
43436 H 30.0378 174.505 140.907 H 0 **** 0.053
43437 H 30.9263 172.118 142.602 H 0 **** 0.053
43438 H 30.3132 173.229 144.479 H 0 **** 0.053
43439 H 28.6026 175.153 142.888 H 0 **** 0.053
43440 H 28.231 174.261 144.363 H 0 **** 0.053
43441 H 26.9046 166.087 136.557 H 0 **** 0.053
43442 H 26.391 167.184 135.264 H 0 **** 0.053
43443 H 28.1085 165.581 134.463 H 0 **** 0.053
43444 H 29.2279 166.039 135.745 H 0 **** 0.053
43445 H 30.2216 165.356 132.824 H 0 **** 0.053
43446 H 28.4934 165.533 132.494 H 0 **** 0.053
43447 H 28.8491 166.404 130.289 H 0 **** 0.053
43448 H 29.8999 164.988 130.45 H 0 **** 0.053
43449 H 31.2031 166.85 129.432 H 0 **** 0.053
43450 H 31.8169 166.557 131.072 H 0 **** 0.053
43451 H 29.8327 168.731 130.183 H 0 **** 0.053
43452 H 32.6966 168.845 131.343 H 0 **** 0.053
43453 H 32.1932 169.24 129.681 H 0 **** 0.053
43454 H 29.7702 172.342 133.619 H 0 **** 0.1268
43455 H 30.862 174.252 132.517 H 0 **** 0.1268
43456 H 23.0972 163.125 143.612 H 0 **** 0.053
43457 H 22.34 162.573 145.07 H 0 **** 0.053
43458 H 24.6123 162.423 146.223 H 0 **** 0.053
43459 H 25.3901 162.951 144.709 H 0 **** 0.053
43460 H 24.5213 161.398 144.77 H 0 **** 0.053
43461 H 21.898 163.999 148.328 H 0 **** 0.053
43462 H 22.4905 162.821 147.181 H 0 **** 0.053
43463 H 20.8715 163.535 146.943 H 0 **** 0.053
43464 H 25.623 165.631 143.36 H 0 **** 0.053
43465 H 24.1463 165.931 142.398 H 0 **** 0.053
43466 H 24.5686 164.299 142.913 H 0 **** 0.053
43467 H 21.2163 167.536 148.12 H 0 **** 0.053
43468 H 22.242 166.387 149.014 H 0 **** 0.053
43469 H 20.7286 165.856 148.222 H 0 **** 0.053
43470 H 22.6699 172.359 147.74 H 0 **** 0.053
43471 H 23.5826 171.105 148.635 H 0 **** 0.053
43472 H 22.0675 170.717 147.768 H 0 **** 0.053
43473 H 25.8938 173.589 146.653 H 0 **** 0.053
43474 H 24.5891 173.19 147.739 H 0 **** 0.053
43475 H 24.2173 174.087 146.233 H 0 **** 0.053
43476 H 26.3722 174.442 143.628 H 0 **** 0.41
43477 H 31.8712 175.152 144.317 H 0 **** 0.053
43478 H 30.2641 175.721 144.814 H 0 **** 0.053
43479 H 30.7978 175.957 143.129 H 0 **** 0.053
43480 H 32.8275 173.076 141.364 H 0 **** 0.053
43481 H 32.9726 173.503 143.085 H 0 **** 0.053
43482 H 32.4156 174.724 141.895 H 0 **** 0.053
43483 H 29.7869 172.228 137.709 H 0 **** 0.41
43484 H 25.9534 167.974 139.964 H 0 **** 0.41
43485 H 33.9214 170.763 129.765 H 0 **** 0.053
43486 H 33.7594 172.441 129.255 H 0 **** 0.053
43487 H 32.6667 171.22 128.574 H 0 **** 0.053
43488 H 33.691 174.243 130.606 H 0 **** 0.053
43489 H 32.2467 175.204 130.953 H 0 **** 0.053
43490 H 32.3763 174.356 129.406 H 0 **** 0.053
43491 C 48.4553 193.85 142.798 C.2 0 **** 0
43492 C 48.8136 192.557 142.45 C.2 0 **** 0
43493 C 47.8508 191.562 142.398 C.2 0 **** 0
43494 C 46.5448 191.877 142.68 C.2 0 **** 0
43495 C 46.1702 193.182 142.976 C.2 0 **** 0
43496 C 47.1292 194.172 143.025 C.2 0 **** 0
43497 C 45.4735 190.805 142.655 C.3 0 **** -0.106
43498 C 45.8954 189.353 142.477 C.2 0 **** 0
43499 C 47.194 189.031 142.197 C.2 0 **** 0
43500 C 48.2406 190.132 142.034 C.3 0 **** -0.106
43501 C 47.5584 187.688 142.066 C.2 0 **** 0
43502 C 46.6469 186.674 142.288 C.2 0 **** 0
43503 C 45.3085 187.002 142.472 C.2 0 **** 0
43504 C 44.924 188.343 142.588 C.2 0 **** 0
43505 C 43.5979 188.669 142.829 C.2 0 **** -0.1268
43506 C 42.6079 187.748 143.104 C.2 0 **** 0
43507 C 43.0708 186.385 143.123 C.2 0 **** 0
43508 C 44.3149 186.035 142.592 C.2 0 **** 0.042
43509 C 42.093 185.254 143.501 C.3 0 **** 0
43510 C 40.6372 185.621 143.8 C.3 0 **** 0
43511 C 40.1951 187.074 143.532 C.2 0 **** 0
43512 C 41.1638 188.088 143.233 C.2 0 **** 0
43513 C 39.9554 184.722 144.853 C.3 0 **** -0.106
43514 C 40.844 184.504 146.081 C.3 0 **** -0.053
43515 C 42.1851 183.803 145.707 C.3 0 **** -0.053
43516 C 42.5706 183.966 144.213 C.3 0 **** -0.106
43517 C 40.6481 189.363 142.926 C.2 0 **** 0.042
43518 C 39.2905 189.603 142.947 C.2 0 **** 0.052
43519 C 38.3832 188.588 143.214 C.2 0 **** 0.052
43520 C 38.8361 187.315 143.442 C.2 0 **** 0.042
43521 C 36.8949 188.819 143.232 C.2 0 **** 0.367
43522 C 36.4351 190.211 142.95 C.2 0 **** 0
43523 C 37.3038 191.192 142.677 C.2 0 **** 0
43524 C 38.7722 190.988 142.655 C.2 0 **** 0.367
43525 C 36.8307 192.601 142.404 C.3 0 **** -0.106
43526 C 35.5946 192.899 143.289 C.3 0 **** -0.106
43527 C 34.5244 191.821 143.115 C.2 0 **** 0
43528 C 34.9409 190.479 142.96 C.2 0 **** 0.2405
43529 N 34.0579 189.466 142.83 N.2 0 **** -0.481
43530 C 32.7636 189.748 142.942 C.2 0 **** 0.2405
43531 C 32.2834 191.073 143.067 C.2 0 **** 0
43532 C 33.1823 192.107 143.14 C.2 0 **** 0
43533 C 32.722 193.551 143.299 C.3 0 **** -0.106
43534 C 31.2357 193.741 142.973 C.3 0 **** -0.106
43535 C 30.4009 192.646 143.629 C.3 0 **** -0.106
43536 C 30.7889 191.276 143.041 C.3 0 **** -0.053
43537 C 30.0853 190.117 143.796 C.3 0 **** -0.106
43538 C 30.5642 188.794 143.26 C.2 0 **** 0
43539 C 31.8938 188.631 142.867 C.2 0 **** 0
43540 C 32.3289 187.373 142.414 C.2 0 **** -0.1268
43541 C 31.4449 186.311 142.391 C.2 0 **** -0.1268
43542 C 30.1369 186.455 142.819 C.2 0 **** 0
43543 C 29.7043 187.701 143.272 C.2 0 **** 0
43544 C 46.7331 195.601 143.295 C.3 0 **** -0.106
43545 C 46.6223 195.872 144.811 C.3 0 **** -0.159
43546 C 49.5254 194.903 142.926 C.3 0 **** -0.159
43547 C 44.7104 193.451 143.26 C.3 0 **** -0.159
43548 C 50.2518 192.225 142.134 C.3 0 **** -0.159
43549 C 49.0154 187.382 141.718 C.3 0 **** -0.159
43550 C 47.1829 185.263 142.324 C.3 0 **** -0.159
43551 O 44.5556 184.726 142.281 O.3 0 **** -0.452
43552 C 42.184 182.294 145.96 C.3 0 **** -0.159
43553 C 40.0187 183.744 147.126 C.3 0 **** -0.159
43554 O 37.9976 186.245 143.601 O.3 0 **** -0.452
43555 O 41.4846 190.376 142.59 O.3 0 **** -0.452
43556 O 39.5131 191.884 142.41 O.2 0 **** -0.419
43557 O 36.1383 187.932 143.505 O.2 0 **** -0.419
43558 C 28.2821 187.854 143.785 C.3 0 **** -0.159
43559 C 29.2348 185.237 142.794 C.3 0 **** -0.159
43560 H 44.9201 190.872 143.621 H 0 **** 0.053
43561 H 44.7418 191.06 141.85 H 0 **** 0.053
43562 H 48.5889 190.13 140.973 H 0 **** 0.053
43563 H 49.1215 189.853 142.654 H 0 **** 0.053
43564 H 43.3927 189.716 142.837 H 0 **** 0.1268
43565 H 39.0044 185.144 145.183 H 0 **** 0.053
43566 H 39.7533 183.771 144.355 H 0 **** 0.053
43567 H 41.0848 185.497 146.502 H 0 **** 0.053
43568 H 42.9743 184.259 146.319 H 0 **** 0.053
43569 H 42.1027 183.165 143.635 H 0 **** 0.053
43570 H 43.6568 183.842 144.127 H 0 **** 0.053
43571 H 37.6101 193.359 142.604 H 0 **** 0.053
43572 H 36.5726 192.685 141.334 H 0 **** 0.053
43573 H 35.2427 193.912 143.03 H 0 **** 0.053
43574 H 35.9215 192.955 144.349 H 0 **** 0.053
43575 H 32.9032 193.88 144.341 H 0 **** 0.053
43576 H 33.2977 194.233 142.648 H 0 **** 0.053
43577 H 31.0851 193.699 141.877 H 0 **** 0.053
43578 H 30.8936 194.742 143.296 H 0 **** 0.053
43579 H 29.3185 192.824 143.483 H 0 **** 0.053
43580 H 30.5787 192.645 144.72 H 0 **** 0.053
43581 H 30.4409 191.257 141.98 H 0 **** 0.053
43582 H 30.3188 190.197 144.882 H 0 **** 0.053
43583 H 28.9862 190.255 143.702 H 0 **** 0.053
43584 H 33.3642 187.221 142.084 H 0 **** 0.1268
43585 H 31.7934 185.327 142.038 H 0 **** 0.1268
43586 H 45.7753 195.869 142.808 H 0 **** 0.053
43587 H 47.4469 196.322 142.858 H 0 **** 0.053
43588 H 47.5776 195.666 145.321 H 0 **** 0.053
43589 H 45.8475 195.241 145.277 H 0 **** 0.053
43590 H 46.3572 196.928 145.019 H 0 **** 0.053
43591 H 50.5033 194.488 143.24 H 0 **** 0.053
43592 H 49.2915 195.662 143.697 H 0 **** 0.053
43593 H 49.6915 195.446 141.97 H 0 **** 0.053
43594 H 44.3552 192.883 144.149 H 0 **** 0.053
43595 H 44.0627 193.156 142.406 H 0 **** 0.053
43596 H 44.4634 194.501 143.473 H 0 **** 0.053
43597 H 50.368 191.347 141.471 H 0 **** 0.053
43598 H 50.8349 192.009 143.057 H 0 **** 0.053
43599 H 50.7673 193.048 141.602 H 0 **** 0.053
43600 H 49.1227 186.466 141.11 H 0 **** 0.053
43601 H 49.6436 187.257 142.63 H 0 **** 0.053
43602 H 49.4977 188.174 141.101 H 0 **** 0.053
43603 H 46.7318 184.665 143.147 H 0 **** 0.053
43604 H 48.284 185.182 142.536 H 0 **** 0.053
43605 H 47.0091 184.699 141.371 H 0 **** 0.053
43606 H 43.7198 184.267 142.162 H 0 **** 0.41
43607 H 42.0668 182.061 147.027 H 0 **** 0.053
43608 H 43.1398 181.846 145.629 H 0 **** 0.053
43609 H 41.373 181.792 145.397 H 0 **** 0.053
43610 H 39.1193 184.322 147.409 H 0 **** 0.053
43611 H 40.5994 183.566 148.044 H 0 **** 0.053
43612 H 39.6659 182.769 146.735 H 0 **** 0.053
43613 H 37.0887 186.578 143.65 H 0 **** 0.41
43614 H 40.9796 191.192 142.451 H 0 **** 0.41
43615 H 28.259 188.348 144.774 H 0 **** 0.053
43616 H 27.7542 186.891 143.923 H 0 **** 0.053
43617 H 27.6581 188.456 143.092 H 0 **** 0.053
43618 H 28.8979 184.953 143.808 H 0 **** 0.053
43619 H 29.7434 184.351 142.375 H 0 **** 0.053
43620 H 28.3352 185.404 142.176 H 0 **** 0.053
43621 C 20.6437 194.499 131.461 C.2 0 **** 0
43622 C 19.6109 194.236 132.347 C.2 0 **** 0
43623 C 18.7396 193.187 132.104 C.2 0 **** 0
43624 C 18.9242 192.407 130.989 C.2 0 **** 0
43625 C 19.993 192.628 130.128 C.2 0 **** 0
43626 C 20.8609 193.672 130.374 C.2 0 **** 0
43627 C 17.9734 191.268 130.682 C.3 0 **** -0.106
43628 C 16.7217 191.111 131.534 C.2 0 **** 0
43629 C 16.5303 191.885 132.645 C.2 0 **** 0
43630 C 17.5856 192.906 133.062 C.3 0 **** -0.106
43631 C 15.3583 191.738 133.394 C.2 0 **** 0
43632 C 14.3555 190.878 132.991 C.2 0 **** 0
43633 C 14.593 190.021 131.923 C.2 0 **** 0
43634 C 15.7692 190.143 131.173 C.2 0 **** 0
43635 C 15.9815 189.326 130.073 C.2 0 **** -0.1268
43636 C 15.0421 188.459 129.555 C.2 0 **** 0
43637 C 13.7886 188.469 130.263 C.2 0 **** 0
43638 C 13.6758 189.052 131.528 C.2 0 **** 0.042
43639 C 12.6152 187.614 129.745 C.3 0 **** 0
43640 C 12.8422 186.739 128.509 C.3 0 **** 0
43641 C 14.2799 186.63 127.963 C.2 0 **** 0
43642 C 15.3144 187.492 128.456 C.2 0 **** 0
43643 C 11.5952 186.557 127.618 C.3 0 **** -0.106
43644 C 10.8763 187.885 127.361 C.3 0 **** -0.053
43645 C 10.378 188.539 128.686 C.3 0 **** -0.053
43646 C 11.1419 188.045 129.942 C.3 0 **** -0.106
43647 C 16.6081 187.255 127.949 C.2 0 **** 0.042
43648 C 16.8335 186.268 127.013 C.2 0 **** 0.052
43649 C 15.8108 185.437 126.581 C.2 0 **** 0.052
43650 C 14.5534 185.58 127.106 C.2 0 **** 0.042
43651 C 16.0309 184.343 125.569 C.2 0 **** 0.367
43652 C 17.4197 184.197 125.042 C.2 0 **** 0
43653 C 18.415 184.985 125.465 C.2 0 **** 0
43654 C 18.2212 186.068 126.459 C.2 0 **** 0.367
43655 C 19.8163 184.837 124.917 C.3 0 **** -0.106
43656 C 19.7343 184.446 123.42 C.3 0 **** -0.106
43657 C 18.8382 183.223 123.223 C.2 0 **** 0
43658 C 17.6772 183.104 124.02 C.2 0 **** 0.2405
43659 N 16.8216 182.068 123.888 N.2 0 **** -0.481
43660 C 17.0458 181.193 122.913 C.2 0 **** 0.2405
43661 C 18.2041 181.24 122.103 C.2 0 **** 0
43662 C 19.1035 182.262 122.279 C.2 0 **** 0
43663 C 20.3562 182.375 121.419 C.3 0 **** -0.106
43664 C 20.6823 181.079 120.669 C.3 0 **** -0.106
43665 C 19.4241 180.501 120.029 C.3 0 **** -0.106
43666 C 18.4175 180.109 121.128 C.3 0 **** -0.053
43667 C 17.0584 179.673 120.519 C.3 0 **** -0.106
43668 C 16.0723 179.394 121.622 C.2 0 **** 0
43669 C 16.0713 180.171 122.782 C.2 0 **** 0
43670 C 15.1099 179.921 123.778 C.2 0 **** -0.1268
43671 C 14.1645 178.933 123.583 C.2 0 **** -0.1268
43672 C 14.1328 178.187 122.418 C.2 0 **** 0
43673 C 15.083 178.436 121.427 C.2 0 **** 0
43674 C 22.0542 193.893 129.48 C.3 0 **** -0.106
43675 C 21.6733 194.729 128.241 C.3 0 **** -0.159
43676 C 21.5289 195.692 131.7 C.3 0 **** -0.159
43677 C 20.1387 191.715 128.933 C.3 0 **** -0.159
43678 C 19.4256 195.096 133.574 C.3 0 **** -0.159
43679 C 15.2075 192.602 134.646 C.3 0 **** -0.159
43680 C 13.0502 190.942 133.748 C.3 0 **** -0.159
43681 O 12.6126 188.716 132.318 O.3 0 **** -0.452
43682 C 8.90027 188.277 128.984 C.3 0 **** -0.159
43683 C 9.76061 187.623 126.342 C.3 0 **** -0.159
43684 O 13.5244 184.726 126.813 O.3 0 **** -0.452
43685 O 17.6602 187.991 128.388 O.3 0 **** -0.452
43686 O 19.1306 186.747 126.811 O.2 0 **** -0.419
43687 O 15.1212 183.666 125.187 O.2 0 **** -0.419
43688 C 15.0263 177.65 120.128 C.3 0 **** -0.159
43689 C 13.0462 177.142 122.263 C.3 0 **** -0.159
43690 H 17.6407 191.394 129.626 H 0 **** 0.053
43691 H 18.5488 190.311 130.722 H 0 **** 0.053
43692 H 18.0212 192.583 134.038 H 0 **** 0.053
43693 H 17.0647 193.87 133.255 H 0 **** 0.053
43694 H 16.9327 189.449 129.606 H 0 **** 0.1268
43695 H 11.8534 186.11 126.656 H 0 **** 0.053
43696 H 10.9385 185.866 128.151 H 0 **** 0.053
43697 H 11.6015 188.575 126.893 H 0 **** 0.053
43698 H 10.529 189.622 128.593 H 0 **** 0.053
43699 H 10.6584 187.14 130.321 H 0 **** 0.053
43700 H 11.052 188.814 130.719 H 0 **** 0.053
43701 H 20.4136 185.762 125.018 H 0 **** 0.053
43702 H 20.3402 184.056 125.496 H 0 **** 0.053
43703 H 20.7681 184.295 123.065 H 0 **** 0.053
43704 H 19.3418 185.313 122.847 H 0 **** 0.053
43705 H 20.2215 183.19 120.682 H 0 **** 0.053
43706 H 21.2405 182.643 122.026 H 0 **** 0.053
43707 H 21.1011 180.334 121.372 H 0 **** 0.053
43708 H 21.4629 181.259 119.906 H 0 **** 0.053
43709 H 19.6603 179.618 119.405 H 0 **** 0.053
43710 H 18.968 181.252 119.359 H 0 **** 0.053
43711 H 18.8446 179.235 121.677 H 0 **** 0.053
43712 H 16.6771 180.487 119.862 H 0 **** 0.053
43713 H 17.2363 178.796 119.86 H 0 **** 0.053
43714 H 15.0962 180.507 124.706 H 0 **** 0.1268
43715 H 13.4116 178.746 124.365 H 0 **** 0.1268
43716 H 22.5122 192.94 129.15 H 0 **** 0.053
43717 H 22.8809 194.4 130.007 H 0 **** 0.053
43718 H 21.2632 195.709 128.535 H 0 **** 0.053
43719 H 20.9156 194.216 127.626 H 0 **** 0.053
43720 H 22.5506 194.92 127.591 H 0 **** 0.053
43721 H 21.0078 196.524 132.211 H 0 **** 0.053
43722 H 21.9145 196.139 130.765 H 0 **** 0.053
43723 H 22.4042 195.431 132.329 H 0 **** 0.053
43724 H 19.2574 191.785 128.256 H 0 **** 0.053
43725 H 20.2328 190.65 129.235 H 0 **** 0.053
43726 H 21.009 191.921 128.292 H 0 **** 0.053
43727 H 18.9009 194.58 134.401 H 0 **** 0.053
43728 H 18.8394 196.014 133.346 H 0 **** 0.053
43729 H 20.3888 195.42 134.013 H 0 **** 0.053
43730 H 14.626 192.1 135.44 H 0 **** 0.053
43731 H 14.7082 193.573 134.424 H 0 **** 0.053
43732 H 16.1785 192.844 135.135 H 0 **** 0.053
43733 H 12.1702 190.891 133.069 H 0 **** 0.053
43734 H 12.8759 191.901 134.307 H 0 **** 0.053
43735 H 12.9354 190.12 134.502 H 0 **** 0.053
43736 H 12.2508 187.875 132.026 H 0 **** 0.41
43737 H 8.24675 188.723 128.222 H 0 **** 0.053
43738 H 8.61864 188.72 129.958 H 0 **** 0.053
43739 H 8.68704 187.192 129.043 H 0 **** 0.053
43740 H 10.1799 187.232 125.396 H 0 **** 0.053
43741 H 9.21095 188.546 126.103 H 0 **** 0.053
43742 H 9.03979 186.868 126.713 H 0 **** 0.053
43743 H 13.8156 184.133 126.104 H 0 **** 0.41
43744 H 18.4647 187.738 127.91 H 0 **** 0.41
43745 H 15.0651 178.32 119.248 H 0 **** 0.053
43746 H 14.0993 177.058 120.007 H 0 **** 0.053
43747 H 15.8688 176.933 120.044 H 0 **** 0.053
43748 H 12.371 177.372 121.418 H 0 **** 0.053
43749 H 12.4083 177.069 123.161 H 0 **** 0.053
43750 H 13.4655 176.135 122.092 H 0 **** 0.053
43751 C 36.4978 171.851 135.93 C.2 0 **** 0
43752 C 37.2297 170.691 135.728 C.2 0 **** 0
43753 C 38.2093 170.323 136.637 C.2 0 **** 0
43754 C 38.4319 171.111 137.739 C.2 0 **** 0
43755 C 37.6642 172.245 137.976 C.2 0 **** 0
43756 C 36.6877 172.608 137.072 C.2 0 **** 0
43757 C 39.5115 170.747 138.738 C.3 0 **** -0.106
43758 C 40.4511 169.594 138.412 C.2 0 **** 0
43759 C 40.2369 168.806 137.316 C.2 0 **** 0
43760 C 39.0329 169.058 136.411 C.3 0 **** -0.106
43761 C 41.1313 167.77 137.026 C.2 0 **** 0
43762 C 42.269 167.575 137.784 C.2 0 **** 0
43763 C 42.4325 168.308 138.954 C.2 0 **** 0
43764 C 41.5362 169.337 139.268 C.2 0 **** 0
43765 C 41.7306 170.106 140.405 C.2 0 **** -0.1268
43766 C 42.844 170.029 141.216 C.2 0 **** 0
43767 C 43.8167 169.062 140.778 C.2 0 **** 0
43768 C 43.4946 168.091 139.826 C.2 0 **** 0.042
43769 C 45.1514 168.927 141.537 C.3 0 **** 0
43770 C 45.3775 169.803 142.772 C.3 0 **** 0
43771 C 44.1874 170.638 143.286 C.2 0 **** 0
43772 C 42.9919 170.761 142.504 C.2 0 **** 0
43773 C 46.8469 170.215 143.003 C.3 0 **** -0.106
43774 C 47.5113 170.711 141.715 C.3 0 **** -0.053
43775 C 47.5317 169.608 140.614 C.3 0 **** -0.053
43776 C 46.4583 168.508 140.823 C.3 0 **** -0.106
43777 C 41.9361 171.48 143.101 C.2 0 **** 0.042
43778 C 42.0801 172.046 144.349 C.2 0 **** 0.052
43779 C 43.2436 171.881 145.086 C.2 0 **** 0.052
43780 C 44.2665 171.125 144.578 C.2 0 **** 0.042
43781 C 43.4236 172.478 146.457 C.2 0 **** 0.367
43782 C 42.2782 173.271 146.992 C.2 0 **** 0
43783 C 41.146 173.421 146.294 C.2 0 **** 0
43784 C 40.9466 172.843 144.943 C.2 0 **** 0.367
43785 C 39.994 174.234 146.838 C.3 0 **** -0.106
43786 C 40.5579 175.429 147.647 C.3 0 **** -0.106
43787 C 41.5576 174.954 148.701 C.2 0 **** 0
43788 C 42.4256 173.888 148.371 C.2 0 **** 0.2405
43789 N 43.3564 173.429 149.236 N.2 0 **** -0.481
43790 C 43.4968 174.062 150.396 C.2 0 **** 0.2405
43791 C 42.6334 175.107 150.8 C.2 0 **** 0
43792 C 41.6604 175.544 149.936 C.2 0 **** 0
43793 C 40.7277 176.691 150.305 C.3 0 **** -0.106
43794 C 40.7382 177.013 151.804 C.3 0 **** -0.106
43795 C 42.1678 177.051 152.331 C.3 0 **** -0.106
43796 C 42.7957 175.647 152.202 C.3 0 **** -0.053
43797 C 44.2928 175.684 152.563 C.3 0 **** -0.106
43798 C 44.9407 174.353 152.312 C.2 0 **** 0
43799 C 44.5378 173.575 151.227 C.2 0 **** 0
43800 C 45.1708 172.341 150.988 C.2 0 **** -0.1268
43801 C 46.2 171.931 151.813 C.2 0 **** -0.1268
43802 C 46.6392 172.72 152.861 C.2 0 **** 0
43803 C 46.0163 173.947 153.095 C.2 0 **** 0
43804 C 35.8123 173.805 137.34 C.3 0 **** -0.106
43805 C 36.493 175.108 136.87 C.3 0 **** -0.159
43806 C 35.4903 172.278 134.894 C.3 0 **** -0.159
43807 C 37.9584 173.049 139.222 C.3 0 **** -0.159
43808 C 36.9697 169.83 134.516 C.3 0 **** -0.159
43809 C 40.8289 166.896 135.809 C.3 0 **** -0.159
43810 C 43.2722 166.569 137.271 C.3 0 **** -0.159
43811 O 44.2869 166.983 139.719 O.3 0 **** -0.452
43812 C 48.8623 168.859 140.516 C.3 0 **** -0.159
43813 C 48.901 171.246 142.082 C.3 0 **** -0.159
43814 O 45.3955 170.826 145.293 O.3 0 **** -0.452
43815 O 40.7499 171.613 142.456 O.3 0 **** -0.452
43816 O 39.9271 172.999 144.353 O.2 0 **** -0.419
43817 O 44.4548 172.353 147.053 O.2 0 **** -0.419
43818 C 46.5272 174.836 154.218 C.3 0 **** -0.159
43819 C 47.7942 172.215 153.704 C.3 0 **** -0.159
43820 H 40.1412 171.655 138.886 H 0 **** 0.053
43821 H 39.0228 170.535 139.721 H 0 **** 0.053
43822 H 38.3448 168.182 136.49 H 0 **** 0.053
43823 H 39.3985 169.075 135.36 H 0 **** 0.053
43824 H 40.9611 170.82 140.594 H 0 **** 0.1268
43825 H 46.9283 170.998 143.759 H 0 **** 0.053
43826 H 47.3577 169.325 143.376 H 0 **** 0.053
43827 H 46.9157 171.56 141.334 H 0 **** 0.053
43828 H 47.3379 170.102 139.652 H 0 **** 0.053
43829 H 46.8675 167.729 141.473 H 0 **** 0.053
43830 H 46.2503 168.047 139.849 H 0 **** 0.053
43831 H 39.3292 174.617 146.042 H 0 **** 0.053
43832 H 39.3763 173.584 147.482 H 0 **** 0.053
43833 H 39.6961 175.971 148.073 H 0 **** 0.053
43834 H 41.0423 176.138 146.943 H 0 **** 0.053
43835 H 41.0231 177.598 149.743 H 0 **** 0.053
43836 H 39.6842 176.469 150.018 H 0 **** 0.053
43837 H 40.1793 176.235 152.357 H 0 **** 0.053
43838 H 40.2203 177.97 152 H 0 **** 0.053
43839 H 42.202 177.382 153.386 H 0 **** 0.053
43840 H 42.7581 177.783 151.75 H 0 **** 0.053
43841 H 42.2739 174.971 152.918 H 0 **** 0.053
43842 H 44.7233 176.45 151.893 H 0 **** 0.053
43843 H 44.4166 176.052 153.602 H 0 **** 0.053
43844 H 44.8556 171.698 150.155 H 0 **** 0.1268
43845 H 46.6869 170.96 151.625 H 0 **** 0.1268
43846 H 35.5495 173.899 138.412 H 0 **** 0.053
43847 H 34.828 173.721 136.846 H 0 **** 0.053
43848 H 36.7213 175.069 135.792 H 0 **** 0.053
43849 H 37.4376 175.287 137.41 H 0 **** 0.053
43850 H 35.8456 175.992 137.038 H 0 **** 0.053
43851 H 35.7644 171.959 133.869 H 0 **** 0.053
43852 H 35.3897 173.377 134.82 H 0 **** 0.053
43853 H 34.4768 171.869 135.103 H 0 **** 0.053
43854 H 38.9969 173.45 139.213 H 0 **** 0.053
43855 H 37.8543 172.437 140.144 H 0 **** 0.053
43856 H 37.313 173.927 139.372 H 0 **** 0.053
43857 H 37.2529 168.769 134.658 H 0 **** 0.053
43858 H 37.5295 170.195 133.626 H 0 **** 0.053
43859 H 35.8978 169.799 134.242 H 0 **** 0.053
43860 H 41.1748 165.855 135.938 H 0 **** 0.053
43861 H 41.3 167.296 134.882 H 0 **** 0.053
43862 H 39.7399 166.795 135.598 H 0 **** 0.053
43863 H 44.3188 166.932 137.376 H 0 **** 0.053
43864 H 43.1969 166.347 136.172 H 0 **** 0.053
43865 H 43.2106 165.578 137.792 H 0 **** 0.053
43866 H 44.7807 166.862 140.534 H 0 **** 0.41
43867 H 49.6832 169.525 140.22 H 0 **** 0.053
43868 H 48.7997 168.057 139.755 H 0 **** 0.053
43869 H 49.1261 168.378 141.479 H 0 **** 0.053
43870 H 48.8208 172.076 142.808 H 0 **** 0.053
43871 H 49.4286 171.631 141.196 H 0 **** 0.053
43872 H 49.5272 170.462 142.554 H 0 **** 0.053
43873 H 45.3761 171.338 146.114 H 0 **** 0.41
43874 H 40.1489 172.169 142.975 H 0 **** 0.41
43875 H 46.7129 175.868 153.869 H 0 **** 0.053
43876 H 47.4877 174.496 154.651 H 0 **** 0.053
43877 H 45.8064 174.887 155.059 H 0 **** 0.053
43878 H 48.6776 172.875 153.633 H 0 **** 0.053
43879 H 48.1292 171.21 153.391 H 0 **** 0.053
43880 H 47.5199 172.134 154.77 H 0 **** 0.053
43881 C 19.1638 92.9044 118.989 C.2 0 **** 0
43882 C 19.1237 91.8797 118.057 C.2 0 **** 0
43883 C 19.7272 92.0449 116.82 C.2 0 **** 0
43884 C 20.3734 93.2236 116.541 C.2 0 **** 0
43885 C 20.4653 94.2332 117.492 C.2 0 **** 0
43886 C 19.8658 94.0664 118.723 C.2 0 **** 0
43887 C 21.0236 93.4425 115.19 C.3 0 **** -0.106
43888 C 20.8031 92.4066 114.096 C.2 0 **** 0
43889 C 20.1595 91.231 114.366 C.2 0 **** 0
43890 C 19.6702 90.929 115.78 C.3 0 **** -0.106
43891 C 19.9471 90.3096 113.335 C.2 0 **** 0
43892 C 20.3089 90.5959 112.034 C.2 0 **** 0
43893 C 21.0523 91.7426 111.779 C.2 0 **** 0
43894 C 21.2891 92.6674 112.803 C.2 0 **** 0
43895 C 21.9814 93.839 112.537 C.2 0 **** -0.1268
43896 C 22.3593 94.2501 111.275 C.2 0 **** 0
43897 C 21.9676 93.3442 110.227 C.2 0 **** 0
43898 C 21.5482 92.0426 110.513 C.2 0 **** 0.042
43899 C 22.2467 93.7155 108.757 C.3 0 **** 0
43900 C 22.9814 95.026 108.464 C.3 0 **** 0
43901 C 23.5538 95.8093 109.662 C.2 0 **** 0
43902 C 23.2131 95.4399 111.005 C.2 0 **** 0
43903 C 22.5684 95.7081 107.142 C.3 0 **** -0.106
43904 C 21.0465 95.7548 106.973 C.3 0 **** -0.053
43905 C 20.4246 94.3256 106.943 C.3 0 **** -0.053
43906 C 21.3217 93.2484 107.607 C.3 0 **** -0.106
43907 C 23.8529 96.1695 112.027 C.2 0 **** 0.042
43908 C 24.7272 97.1925 111.727 C.2 0 **** 0.052
43909 C 25.0524 97.5018 110.415 C.2 0 **** 0.052
43910 C 24.5145 96.7671 109.392 C.2 0 **** 0.042
43911 C 26.0134 98.6057 110.059 C.2 0 **** 0.367
43912 C 26.6045 99.3651 111.2 C.2 0 **** 0
43913 C 26.3075 99.0623 112.469 C.2 0 **** 0
43914 C 25.3642 97.9816 112.842 C.2 0 **** 0.367
43915 C 26.9027 99.8428 113.618 C.3 0 **** -0.106
43916 C 27.0443 101.328 113.2 C.3 0 **** -0.106
43917 C 27.8054 101.454 111.88 C.2 0 **** 0
43918 C 27.5776 100.485 110.877 C.2 0 **** 0.2405
43919 N 28.192 100.539 109.676 N.2 0 **** -0.481
43920 C 28.9555 101.595 109.413 C.2 0 **** 0.2405
43921 C 29.2465 102.582 110.384 C.2 0 **** 0
43922 C 28.6694 102.49 111.626 C.2 0 **** 0
43923 C 28.9296 103.536 112.703 C.3 0 **** -0.106
43924 C 30.1492 104.414 112.397 C.3 0 **** -0.106
43925 C 30.126 104.873 110.943 C.3 0 **** -0.106
43926 C 30.2435 103.651 110.012 C.3 0 **** -0.053
43927 C 30.0564 104.053 108.525 C.3 0 **** -0.106
43928 C 30.0795 102.822 107.658 C.2 0 **** 0
43929 C 29.511 101.629 108.109 C.2 0 **** 0
43930 C 29.5036 100.506 107.263 C.2 0 **** -0.1268
43931 C 30.0314 100.606 105.99 C.2 0 **** -0.1268
43932 C 30.5583 101.796 105.521 C.2 0 **** 0
43933 C 30.5637 102.912 106.357 C.2 0 **** 0
43934 C 19.9994 95.1296 119.783 C.3 0 **** -0.106
43935 C 18.9333 96.2311 119.603 C.3 0 **** -0.159
43936 C 18.4368 92.7391 120.299 C.3 0 **** -0.159
43937 C 21.2093 95.4937 117.114 C.3 0 **** -0.159
43938 C 18.4166 90.5858 118.379 C.3 0 **** -0.159
43939 C 19.2534 88.9955 113.695 C.3 0 **** -0.159
43940 C 19.854 89.6302 110.965 C.3 0 **** -0.159
43941 O 21.5555 91.1107 109.514 O.3 0 **** -0.452
43942 C 20.146 93.8035 105.532 C.3 0 **** -0.159
43943 C 20.7405 96.5891 105.724 C.3 0 **** -0.159
43944 O 24.8765 96.9391 108.083 O.3 0 **** -0.452
43945 O 23.6271 95.8649 113.33 O.3 0 **** -0.452
43946 O 25.1254 97.7416 113.982 O.2 0 **** -0.419
43947 O 26.2467 98.8732 108.916 O.2 0 **** -0.419
43948 C 31.101 104.234 105.833 C.3 0 **** -0.159
43949 C 31.0903 101.837 104.102 C.3 0 **** -0.159
43950 H 20.651 94.4183 114.8 H 0 **** 0.053
43951 H 22.1239 93.5611 115.345 H 0 **** 0.053
43952 H 20.2528 90.062 116.175 H 0 **** 0.053
43953 H 18.6136 90.589 115.706 H 0 **** 0.053
43954 H 22.1685 94.4479 113.392 H 0 **** 0.1268
43955 H 22.956 96.7266 107.08 H 0 **** 0.053
43956 H 23.0223 95.12 106.341 H 0 **** 0.053
43957 H 20.6274 96.2903 107.844 H 0 **** 0.053
43958 H 19.4749 94.3709 107.492 H 0 **** 0.053
43959 H 22.0181 92.8552 106.861 H 0 **** 0.053
43960 H 20.6783 92.4191 107.925 H 0 **** 0.053
43961 H 26.2911 99.7825 114.537 H 0 **** 0.053
43962 H 27.8886 99.4117 113.865 H 0 **** 0.053
43963 H 27.5275 101.86 114.037 H 0 **** 0.053
43964 H 26.0292 101.77 113.108 H 0 **** 0.053
43965 H 28.0393 104.186 112.804 H 0 **** 0.053
43966 H 29.0925 103.068 113.691 H 0 **** 0.053
43967 H 31.0781 103.84 112.578 H 0 **** 0.053
43968 H 30.1822 105.282 113.082 H 0 **** 0.053
43969 H 30.9473 105.585 110.733 H 0 **** 0.053
43970 H 29.1809 105.407 110.735 H 0 **** 0.053
43971 H 31.2752 103.238 110.13 H 0 **** 0.053
43972 H 29.0833 104.583 108.412 H 0 **** 0.053
43973 H 30.8463 104.789 108.261 H 0 **** 0.053
43974 H 29.0764 99.5527 107.598 H 0 **** 0.1268
43975 H 30.0173 99.7236 105.33 H 0 **** 0.1268
43976 H 21.0047 95.5944 119.784 H 0 **** 0.053
43977 H 19.9125 94.7153 120.803 H 0 **** 0.053
43978 H 17.9156 95.8096 119.65 H 0 **** 0.053
43979 H 19.0432 96.7435 118.633 H 0 **** 0.053
43980 H 19.0065 97.0043 120.394 H 0 **** 0.053
43981 H 17.5423 92.0911 120.216 H 0 **** 0.053
43982 H 18.0449 93.6951 120.695 H 0 **** 0.053
43983 H 19.0887 92.2999 121.086 H 0 **** 0.053
43984 H 20.7298 96.0086 116.252 H 0 **** 0.053
43985 H 22.2604 95.2819 116.822 H 0 **** 0.053
43986 H 21.2677 96.2549 117.906 H 0 **** 0.053
43987 H 18.7957 89.7191 117.804 H 0 **** 0.053
43988 H 17.3252 90.6532 118.174 H 0 **** 0.053
43989 H 18.5355 90.2917 119.44 H 0 **** 0.053
43990 H 19.5942 88.1512 113.07 H 0 **** 0.053
43991 H 18.1465 89.0674 113.591 H 0 **** 0.053
43992 H 19.4568 88.6597 114.738 H 0 **** 0.053
43993 H 19.4849 90.1555 110.057 H 0 **** 0.053
43994 H 18.9772 88.9882 111.253 H 0 **** 0.053
43995 H 20.6594 88.9235 110.636 H 0 **** 0.053
43996 H 22.1536 91.393 108.817 H 0 **** 0.41
43997 H 19.3963 94.4155 105.013 H 0 **** 0.053
43998 H 19.7547 92.7691 105.572 H 0 **** 0.053
43999 H 21.0697 93.7814 104.92 H 0 **** 0.053
44000 H 21.1394 97.6153 105.832 H 0 **** 0.053
44001 H 19.6568 96.6725 105.553 H 0 **** 0.053
44002 H 21.2094 96.154 104.818 H 0 **** 0.053
44003 H 25.4364 97.7283 108.025 H 0 **** 0.41
44004 H 24.1071 96.4822 113.902 H 0 **** 0.41
44005 H 30.391 105.061 106.018 H 0 **** 0.053
44006 H 31.2813 104.237 104.741 H 0 **** 0.053
44007 H 32.0661 104.503 106.31 H 0 **** 0.053
44008 H 30.5198 102.54 103.469 H 0 **** 0.053
44009 H 31.0294 100.852 103.607 H 0 **** 0.053
44010 H 32.1514 102.14 104.069 H 0 **** 0.053
44011 C 11.1899 166.424 174.105 C.2 0 **** 0
44012 C 10.8681 165.091 173.905 C.2 0 **** 0
44013 C 11.5869 164.101 174.555 C.2 0 **** 0
44014 C 12.6047 164.458 175.405 C.2 0 **** 0
44015 C 12.8962 165.794 175.651 C.2 0 **** 0
44016 C 12.1781 166.779 175.005 C.2 0 **** 0
44017 C 13.4232 163.397 176.113 C.3 0 **** -0.106
44018 C 13.2092 161.937 175.737 C.2 0 **** 0
44019 C 12.1988 161.573 174.891 C.2 0 **** 0
44020 C 11.2512 162.629 174.326 C.3 0 **** -0.106
44021 C 12.0428 160.228 174.542 C.2 0 **** 0
44022 C 12.9354 159.268 174.977 C.2 0 **** 0
44023 C 13.898 159.621 175.916 C.2 0 **** 0
44024 C 14.0563 160.961 176.29 C.2 0 **** 0
44025 C 15.0538 161.322 177.183 C.2 0 **** -0.1268
44026 C 16.0241 160.463 177.654 C.2 0 **** 0
44027 C 15.9192 159.125 177.132 C.2 0 **** 0
44028 C 14.7606 158.689 176.485 C.2 0 **** 0.042
44029 C 16.9873 158.077 177.504 C.3 0 **** 0
44030 C 18.1071 158.489 178.464 C.3 0 **** 0
44031 C 18.0003 159.871 179.139 C.2 0 **** 0
44032 C 17.0131 160.817 178.71 C.2 0 **** 0
44033 C 19.4582 157.789 178.206 C.3 0 **** -0.106
44034 C 19.8308 157.792 176.72 C.3 0 **** -0.053
44035 C 18.7733 157.038 175.857 C.3 0 **** -0.053
44036 C 17.3825 156.936 176.537 C.3 0 **** -0.106
44037 C 16.9478 162.017 179.446 C.2 0 **** 0.042
44038 C 17.8137 162.255 180.492 C.2 0 **** 0.052
44039 C 18.7373 161.302 180.895 C.2 0 **** 0.052
44040 C 18.7826 160.09 180.258 C.2 0 **** 0.042
44041 C 19.6864 161.53 182.042 C.2 0 **** 0.367
44042 C 19.5883 162.85 182.733 C.2 0 **** 0
44043 C 18.6892 163.768 182.36 C.2 0 **** 0
44044 C 17.7466 163.566 181.234 C.2 0 **** 0.367
44045 C 18.6037 165.106 183.058 C.3 0 **** -0.106
44046 C 20.0294 165.554 183.467 C.3 0 **** -0.106
44047 C 20.7376 164.46 184.268 C.2 0 **** 0
44048 C 20.5298 163.113 183.894 C.2 0 **** 0.2405
44049 N 21.1381 162.091 184.534 N.2 0 **** -0.481
44050 C 22.0261 162.386 185.478 C.2 0 **** 0.2405
44051 C 22.2555 163.711 185.917 C.2 0 **** 0
44052 C 21.5898 164.744 185.306 C.2 0 **** 0
44053 C 21.8153 166.192 185.722 C.3 0 **** -0.106
44054 C 22.5103 166.319 187.083 C.3 0 **** -0.106
44055 C 23.6891 165.356 187.172 C.3 0 **** -0.106
44056 C 23.1791 163.904 187.094 C.3 0 **** -0.053
44057 C 24.3552 162.896 187.013 C.3 0 **** -0.106
44058 C 23.8186 161.5 186.838 C.2 0 **** 0
44059 C 22.6829 161.272 186.059 C.2 0 **** 0
44060 C 22.2283 159.954 185.872 C.2 0 **** -0.1268
44061 C 22.9262 158.904 186.436 C.2 0 **** -0.1268
44062 C 24.0768 159.119 187.175 C.2 0 **** 0
44063 C 24.5313 160.424 187.358 C.2 0 **** 0
44064 C 12.4464 168.232 175.3 C.3 0 **** -0.106
44065 C 13.6177 168.766 174.448 C.3 0 **** -0.159
44066 C 10.45 167.485 173.332 C.3 0 **** -0.159
44067 C 14.0191 166.107 176.613 C.3 0 **** -0.159
44068 C 9.7415 164.712 172.976 C.3 0 **** -0.159
44069 C 10.877 159.868 173.621 C.3 0 **** -0.159
44070 C 12.8023 157.886 174.383 C.3 0 **** -0.159
44071 O 14.544 157.346 176.35 O.3 0 **** -0.452
44072 C 19.1647 155.598 175.522 C.3 0 **** -0.159
44073 C 21.2504 157.227 176.592 C.3 0 **** -0.159
44074 O 19.5864 159.063 180.672 O.3 0 **** -0.452
44075 O 16.0161 162.956 179.144 O.3 0 **** -0.452
44076 O 16.9604 164.406 180.933 O.2 0 **** -0.419
44077 O 20.4978 160.704 182.343 O.2 0 **** -0.419
44078 C 25.818 160.663 188.131 C.3 0 **** -0.159
44079 C 24.8056 157.914 187.736 C.3 0 **** -0.159
44080 H 14.4968 163.633 175.927 H 0 **** 0.053
44081 H 13.2603 163.505 177.213 H 0 **** 0.053
44082 H 10.2308 162.442 174.739 H 0 **** 0.053
44083 H 11.1798 162.465 173.228 H 0 **** 0.053
44084 H 15.0542 162.354 177.455 H 0 **** 0.1268
44085 H 20.2664 158.261 178.767 H 0 **** 0.053
44086 H 19.3438 156.764 178.567 H 0 **** 0.053
44087 H 19.858 158.844 176.382 H 0 **** 0.053
44088 H 18.6593 157.597 174.919 H 0 **** 0.053
44089 H 17.3598 156.044 177.169 H 0 **** 0.053
44090 H 16.6296 156.801 175.751 H 0 **** 0.053
44091 H 18.1468 165.889 182.425 H 0 **** 0.053
44092 H 17.9584 165 183.947 H 0 **** 0.053
44093 H 19.9289 166.505 184.018 H 0 **** 0.053
44094 H 20.6037 165.797 182.548 H 0 **** 0.053
44095 H 22.4338 166.7 184.957 H 0 **** 0.053
44096 H 20.8633 166.75 185.778 H 0 **** 0.053
44097 H 21.7931 166.085 187.892 H 0 **** 0.053
44098 H 22.8411 167.361 187.252 H 0 **** 0.053
44099 H 24.258 165.504 188.11 H 0 **** 0.053
44100 H 24.3909 165.548 186.34 H 0 **** 0.053
44101 H 22.6124 163.697 188.034 H 0 **** 0.053
44102 H 25.0066 163.166 186.151 H 0 **** 0.053
44103 H 24.9795 163.013 187.926 H 0 **** 0.053
44104 H 21.3299 159.748 185.277 H 0 **** 0.1268
44105 H 22.5672 157.874 186.282 H 0 **** 0.1268
44106 H 12.6673 168.407 176.372 H 0 **** 0.053
44107 H 11.5594 168.866 175.12 H 0 **** 0.053
44108 H 13.4073 168.656 173.372 H 0 **** 0.053
44109 H 14.5538 168.227 174.669 H 0 **** 0.053
44110 H 13.805 169.841 174.64 H 0 **** 0.053
44111 H 10.1046 167.134 172.34 H 0 **** 0.053
44112 H 11.0774 168.368 173.106 H 0 **** 0.053
44113 H 9.55384 167.852 173.88 H 0 **** 0.053
44114 H 14.9922 165.704 176.252 H 0 **** 0.053
44115 H 13.8387 165.665 177.617 H 0 **** 0.053
44116 H 14.199 167.178 176.788 H 0 **** 0.053
44117 H 9.28589 163.73 173.21 H 0 **** 0.053
44118 H 10.0818 164.662 171.917 H 0 **** 0.053
44119 H 8.89882 165.428 173.019 H 0 **** 0.053
44120 H 10.4738 158.86 173.822 H 0 **** 0.053
44121 H 11.1686 159.907 172.546 H 0 **** 0.053
44122 H 9.99656 160.54 173.74 H 0 **** 0.053
44123 H 13.791 157.442 174.132 H 0 **** 0.053
44124 H 12.2568 157.846 173.401 H 0 **** 0.053
44125 H 12.276 157.163 175.059 H 0 **** 0.053
44126 H 15.0645 156.871 177.004 H 0 **** 0.41
44127 H 20.0708 155.557 174.903 H 0 **** 0.053
44128 H 18.3559 155.1 174.954 H 0 **** 0.053
44129 H 19.3361 155.003 176.44 H 0 **** 0.053
44130 H 21.9693 157.845 177.163 H 0 **** 0.053
44131 H 21.5844 157.215 175.544 H 0 **** 0.053
44132 H 21.3166 156.197 176.997 H 0 **** 0.053
44133 H 20.1741 159.399 181.366 H 0 **** 0.41
44134 H 16.1373 163.736 179.706 H 0 **** 0.41
44135 H 26.5083 161.324 187.573 H 0 **** 0.053
44136 H 26.3925 159.739 188.332 H 0 **** 0.053
44137 H 25.624 161.132 189.117 H 0 **** 0.053
44138 H 25.8213 157.813 187.312 H 0 **** 0.053
44139 H 24.2795 156.969 187.514 H 0 **** 0.053
44140 H 24.9045 157.968 188.834 H 0 **** 0.053
44141 C 21.4472 166.406 129.156 C.2 0 **** 0
44142 C 22.6286 166.123 129.824 C.2 0 **** 0
44143 C 22.9041 164.825 130.223 C.2 0 **** 0
44144 C 22.0039 163.828 129.937 C.2 0 **** 0
44145 C 20.845 164.095 129.218 C.2 0 **** 0
44146 C 20.574 165.387 128.818 C.2 0 **** 0
44147 C 22.2651 162.404 130.383 C.3 0 **** -0.106
44148 C 23.4533 162.13 131.294 C.2 0 **** 0
44149 C 24.3529 163.116 131.584 C.2 0 **** 0
44150 C 24.1931 164.508 130.977 C.3 0 **** -0.106
44151 C 25.418 162.842 132.446 C.2 0 **** 0
44152 C 25.5424 161.617 133.069 C.2 0 **** 0
44153 C 24.6888 160.586 132.695 C.2 0 **** 0
44154 C 23.6252 160.838 131.82 C.2 0 **** 0
44155 C 22.7385 159.823 131.492 C.2 0 **** -0.1268
44156 C 22.7363 158.574 132.076 C.2 0 **** 0
44157 C 23.7529 158.399 133.081 C.2 0 **** 0
44158 C 24.8194 159.294 133.196 C.2 0 **** 0.042
44159 C 23.8153 157.081 133.879 C.3 0 **** 0
44160 C 22.8127 155.976 133.538 C.3 0 **** 0
44161 C 21.9173 156.178 132.299 C.2 0 **** 0
44162 C 21.8701 157.447 131.633 C.2 0 **** 0
44163 C 22.3897 155.105 134.74 C.3 0 **** -0.106
44164 C 22.0418 155.953 135.967 C.3 0 **** -0.053
44165 C 23.2583 156.802 136.447 C.3 0 **** -0.053
44166 C 24.3208 157.036 135.341 C.3 0 **** -0.106
44167 C 21.0829 157.502 130.465 C.2 0 **** 0.042
44168 C 20.3857 156.396 130.028 C.2 0 **** 0.052
44169 C 20.479 155.178 130.685 C.2 0 **** 0.052
44170 C 21.294 155.059 131.779 C.2 0 **** 0.042
44171 C 19.7381 153.951 130.222 C.2 0 **** 0.367
44172 C 18.8833 154.109 129.009 C.2 0 **** 0
44173 C 18.8004 155.277 128.36 C.2 0 **** 0
44174 C 19.5193 156.498 128.798 C.2 0 **** 0.367
44175 C 17.9237 155.432 127.139 C.3 0 **** -0.106
44176 C 16.6529 154.564 127.317 C.3 0 **** -0.106
44177 C 17.0197 153.12 127.66 C.2 0 **** 0
44178 C 18.1225 152.892 128.515 C.2 0 **** 0.2405
44179 N 18.4943 151.649 128.886 N.2 0 **** -0.481
44180 C 17.7337 150.628 128.502 C.2 0 **** 0.2405
44181 C 16.6367 150.788 127.624 C.2 0 **** 0
44182 C 16.2971 152.048 127.199 C.2 0 **** 0
44183 C 15.1113 152.281 126.271 C.3 0 **** -0.106
44184 C 14.6299 150.997 125.586 C.3 0 **** -0.106
44185 C 14.5378 149.856 126.594 C.3 0 **** -0.106
44186 C 15.9403 149.538 127.146 C.3 0 **** -0.053
44187 C 15.8727 148.499 128.296 C.3 0 **** -0.106
44188 C 17.2465 148.289 128.875 C.2 0 **** 0
44189 C 18.1371 149.358 128.987 C.2 0 **** 0
44190 C 19.3975 149.147 129.574 C.2 0 **** -0.1268
44191 C 19.7252 147.895 130.057 C.2 0 **** -0.1268
44192 C 18.8317 146.841 129.988 C.2 0 **** 0
44193 C 17.5801 147.049 129.409 C.2 0 **** 0
44194 C 19.3479 165.685 127.993 C.3 0 **** -0.106
44195 C 18.109 165.885 128.891 C.3 0 **** -0.159
44196 C 21.1161 167.831 128.8 C.3 0 **** -0.159
44197 C 19.9123 162.942 128.928 C.3 0 **** -0.159
44198 C 23.6158 167.221 130.134 C.3 0 **** -0.159
44199 C 26.4137 163.966 132.711 C.3 0 **** -0.159
44200 C 26.6073 161.49 134.133 C.3 0 **** -0.159
44201 O 25.9392 158.905 133.875 O.3 0 **** -0.452
44202 C 24.0242 156.178 137.615 C.3 0 **** -0.159
44203 C 21.4819 155.013 137.041 C.3 0 **** -0.159
44204 O 21.523 153.865 132.409 O.3 0 **** -0.452
44205 O 21.0105 158.647 129.741 O.3 0 **** -0.452
44206 O 19.4207 157.517 128.196 O.2 0 **** -0.419
44207 O 19.8079 152.923 130.832 O.2 0 **** -0.419
44208 C 16.5784 145.907 129.37 C.3 0 **** -0.159
44209 C 19.251 145.504 130.568 C.3 0 **** -0.159
44210 H 21.3515 162.055 130.918 H 0 **** 0.053
44211 H 22.3649 161.764 129.472 H 0 **** 0.053
44212 H 25.0497 164.69 130.284 H 0 **** 0.053
44213 H 24.2935 165.249 131.801 H 0 **** 0.053
44214 H 22.002 160.095 130.77 H 0 **** 0.1268
44215 H 21.5301 154.478 134.496 H 0 **** 0.053
44216 H 23.2385 154.453 134.956 H 0 **** 0.053
44217 H 21.234 156.649 135.678 H 0 **** 0.053
44218 H 22.8701 157.778 136.766 H 0 **** 0.053
44219 H 25.0271 156.201 135.342 H 0 **** 0.053
44220 H 24.8831 157.943 135.597 H 0 **** 0.053
44221 H 17.6236 156.481 126.96 H 0 **** 0.053
44222 H 18.4952 155.109 126.252 H 0 **** 0.053
44223 H 16.0602 154.657 126.39 H 0 **** 0.053
44224 H 16.0279 155.008 128.12 H 0 **** 0.053
44225 H 14.2723 152.712 126.851 H 0 **** 0.053
44226 H 15.3544 153.013 125.48 H 0 **** 0.053
44227 H 15.3391 150.712 124.785 H 0 **** 0.053
44228 H 13.6545 151.164 125.092 H 0 **** 0.053
44229 H 14.101 148.949 126.134 H 0 **** 0.053
44230 H 13.8693 150.146 127.424 H 0 **** 0.053
44231 H 16.5352 149.091 126.313 H 0 **** 0.053
44232 H 15.1789 148.873 129.083 H 0 **** 0.053
44233 H 15.419 147.566 127.897 H 0 **** 0.053
44234 H 20.1222 149.966 129.66 H 0 **** 0.1268
44235 H 20.7128 147.738 130.52 H 0 **** 0.1268
44236 H 19.1359 164.886 127.256 H 0 **** 0.053
44237 H 19.4772 166.581 127.361 H 0 **** 0.053
44238 H 18.2652 166.711 129.605 H 0 **** 0.053
44239 H 17.8805 164.976 129.471 H 0 **** 0.053
44240 H 17.2071 166.131 128.295 H 0 **** 0.053
44241 H 21.5556 168.566 129.502 H 0 **** 0.053
44242 H 20.031 168.039 128.828 H 0 **** 0.053
44243 H 21.4536 168.093 127.777 H 0 **** 0.053
44244 H 19.5228 162.485 129.865 H 0 **** 0.053
44245 H 20.4194 162.132 128.359 H 0 **** 0.053
44246 H 19.018 163.202 128.342 H 0 **** 0.053
44247 H 24.6563 166.863 130.248 H 0 **** 0.053
44248 H 23.3544 167.758 131.071 H 0 **** 0.053
44249 H 23.6736 167.974 129.331 H 0 **** 0.053
44250 H 27.435 163.587 132.891 H 0 **** 0.053
44251 H 26.1201 164.585 133.59 H 0 **** 0.053
44252 H 26.5273 164.663 131.85 H 0 **** 0.053
44253 H 26.2447 160.927 135.021 H 0 **** 0.053
44254 H 26.9471 162.464 134.58 H 0 **** 0.053
44255 H 27.5355 160.975 133.771 H 0 **** 0.053
44256 H 25.9739 157.945 133.912 H 0 **** 0.41
44257 H 23.4001 156.101 138.515 H 0 **** 0.053
44258 H 24.9031 156.797 137.876 H 0 **** 0.053
44259 H 24.3992 155.168 137.357 H 0 **** 0.053
44260 H 20.577 154.494 136.673 H 0 **** 0.053
44261 H 21.1989 155.565 137.95 H 0 **** 0.053
44262 H 22.2142 154.228 137.318 H 0 **** 0.053
44263 H 20.9229 153.204 132.032 H 0 **** 0.41
44264 H 20.3968 158.533 129 H 0 **** 0.41
44265 H 15.5919 146.22 129.761 H 0 **** 0.053
44266 H 16.8756 145.035 129.984 H 0 **** 0.053
44267 H 16.4287 145.526 128.339 H 0 **** 0.053
44268 H 18.6082 145.203 131.415 H 0 **** 0.053
44269 H 20.2856 145.524 130.953 H 0 **** 0.053
44270 H 19.2123 144.699 129.814 H 0 **** 0.053
44271 C 22.3158 153.933 163.528 C.2 0 **** 0
44272 C 21.9348 155.25 163.323 C.2 0 **** 0
44273 C 22.2863 155.897 162.149 C.2 0 **** 0
44274 C 22.9942 155.214 161.192 C.2 0 **** 0
44275 C 23.3325 153.878 161.368 C.2 0 **** 0
44276 C 22.9821 153.235 162.537 C.2 0 **** 0
44277 C 23.4115 155.901 159.907 C.3 0 **** -0.106
44278 C 23.1904 157.4 159.779 C.2 0 **** 0
44279 C 22.5014 158.087 160.738 C.2 0 **** 0
44280 C 21.8947 157.353 161.93 C.3 0 **** -0.106
44281 C 22.3691 159.474 160.628 C.2 0 **** 0
44282 C 22.9396 160.169 159.577 C.2 0 **** 0
44283 C 23.5368 159.455 158.543 C.2 0 **** 0
44284 C 23.6928 158.069 158.649 C.2 0 **** 0
44285 C 24.3582 157.367 157.656 C.2 0 **** -0.1268
44286 C 25.0157 157.955 156.596 C.2 0 **** 0
44287 C 24.9475 159.392 156.592 C.2 0 **** 0
44288 C 24.0394 160.075 157.405 C.2 0 **** 0.042
44289 C 25.7097 160.191 155.517 C.3 0 **** 0
44290 C 26.4882 159.415 154.451 C.3 0 **** 0
44291 C 26.3124 157.884 154.41 C.2 0 **** 0
44292 C 25.632 157.199 155.471 C.2 0 **** 0
44293 C 27.7659 160.122 153.949 C.3 0 **** -0.106
44294 C 28.6087 160.674 155.102 C.3 0 **** -0.053
44295 C 27.8211 161.729 155.938 C.3 0 **** -0.053
44296 C 26.2807 161.603 155.797 C.3 0 **** -0.106
44297 C 25.4594 155.811 155.299 C.2 0 **** 0.042
44298 C 25.9489 155.17 154.181 C.2 0 **** 0.052
44299 C 26.5762 155.872 153.163 C.2 0 **** 0.052
44300 C 26.699 157.233 153.253 C.2 0 **** 0.042
44301 C 27.1105 155.198 151.928 C.2 0 **** 0.367
44302 C 26.9356 153.717 151.85 C.2 0 **** 0
44303 C 26.3172 153.035 152.821 C.2 0 **** 0
44304 C 25.784 153.678 154.046 C.2 0 **** 0.367
44305 C 26.1535 151.535 152.741 C.3 0 **** -0.106
44306 C 27.4027 150.926 152.055 C.3 0 **** -0.106
44307 C 27.6819 151.611 150.718 C.2 0 **** 0
44308 C 27.4631 153.004 150.618 C.2 0 **** 0.2405
44309 N 27.71 153.687 149.479 N.2 0 **** -0.481
44310 C 28.2622 153.03 148.464 C.2 0 **** 0.2405
44311 C 28.4765 151.632 148.492 C.2 0 **** 0
44312 C 28.1677 150.93 149.63 C.2 0 **** 0
44313 C 28.3991 149.426 149.723 C.3 0 **** -0.106
44314 C 28.6129 148.77 148.353 C.3 0 **** -0.106
44315 C 29.5831 149.594 147.513 C.3 0 **** -0.106
44316 C 28.9732 150.979 147.226 C.3 0 **** -0.053
44317 C 29.9923 151.909 146.517 C.3 0 **** -0.106
44318 C 29.3954 153.281 146.343 C.2 0 **** 0
44319 C 28.5643 153.82 147.327 C.2 0 **** 0
44320 C 28.0569 155.121 147.163 C.2 0 **** -0.1268
44321 C 28.4098 155.857 146.049 C.2 0 **** -0.1268
44322 C 29.2667 155.345 145.09 C.2 0 **** 0
44323 C 29.7738 154.056 145.252 C.2 0 **** 0
44324 C 23.295 151.772 162.722 C.3 0 **** -0.106
44325 C 24.7331 151.572 163.245 C.3 0 **** -0.159
44326 C 21.9954 153.269 164.841 C.3 0 **** -0.159
44327 C 24.1017 153.192 160.262 C.3 0 **** -0.159
44328 C 21.1468 155.987 164.378 C.3 0 **** -0.159
44329 C 21.5068 160.187 161.674 C.3 0 **** -0.159
44330 C 22.8299 161.675 159.611 C.3 0 **** -0.159
44331 O 23.7399 161.373 157.112 O.3 0 **** -0.452
44332 C 28.1433 163.177 155.564 C.3 0 **** -0.159
44333 C 29.9202 161.206 154.512 C.3 0 **** -0.159
44334 O 27.2083 158.002 152.242 O.3 0 **** -0.452
44335 O 24.7938 155.083 156.231 O.3 0 **** -0.452
44336 O 25.2377 153.038 154.885 O.2 0 **** -0.419
44337 O 27.6827 155.823 151.083 O.2 0 **** -0.419
44338 C 30.7497 153.506 144.225 C.3 0 **** -0.159
44339 C 29.6326 156.224 143.911 C.3 0 **** -0.159
44340 H 24.5051 155.723 159.782 H 0 **** 0.053
44341 H 22.9066 155.388 159.051 H 0 **** 0.053
44342 H 20.7834 157.403 161.852 H 0 **** 0.053
44343 H 22.1676 157.921 162.847 H 0 **** 0.053
44344 H 24.3799 156.31 157.797 H 0 **** 0.1268
44345 H 28.3885 159.449 153.356 H 0 **** 0.053
44346 H 27.4285 160.934 153.301 H 0 **** 0.053
44347 H 28.8605 159.83 155.77 H 0 **** 0.053
44348 H 28.0865 161.574 156.992 H 0 **** 0.053
44349 H 25.9535 162.188 154.933 H 0 **** 0.053
44350 H 25.8224 162.049 156.688 H 0 **** 0.053
44351 H 26.0208 151.066 153.733 H 0 **** 0.053
44352 H 25.2426 151.311 152.159 H 0 **** 0.053
44353 H 27.2296 149.84 151.964 H 0 **** 0.053
44354 H 28.2723 151.036 152.738 H 0 **** 0.053
44355 H 29.2875 149.231 150.354 H 0 **** 0.053
44356 H 27.549 148.915 150.21 H 0 **** 0.053
44357 H 27.6469 148.698 147.818 H 0 **** 0.053
44358 H 28.98 147.734 148.474 H 0 **** 0.053
44359 H 29.8213 149.084 146.56 H 0 **** 0.053
44360 H 30.5376 149.714 148.057 H 0 **** 0.053
44361 H 28.1078 150.827 146.536 H 0 **** 0.053
44362 H 30.9181 151.97 147.133 H 0 **** 0.053
44363 H 30.2874 151.436 145.555 H 0 **** 0.053
44364 H 27.3899 155.563 147.914 H 0 **** 0.1268
44365 H 28.0123 156.878 145.929 H 0 **** 0.1268
44366 H 23.1662 151.196 161.785 H 0 **** 0.053
44367 H 22.5928 151.281 163.418 H 0 **** 0.053
44368 H 24.8811 152.091 164.207 H 0 **** 0.053
44369 H 25.4789 151.962 162.533 H 0 **** 0.053
44370 H 24.9632 150.5 163.41 H 0 **** 0.053
44371 H 21.9633 153.982 165.689 H 0 **** 0.053
44372 H 22.7552 152.522 165.142 H 0 **** 0.053
44373 H 21.0138 152.746 164.816 H 0 **** 0.053
44374 H 25.0897 153.676 160.09 H 0 **** 0.053
44375 H 23.5531 153.222 159.296 H 0 **** 0.053
44376 H 24.33 152.131 160.443 H 0 **** 0.053
44377 H 20.5353 156.817 163.975 H 0 **** 0.053
44378 H 21.8121 156.426 165.155 H 0 **** 0.053
44379 H 20.421 155.332 164.897 H 0 **** 0.053
44380 H 20.947 161.045 161.255 H 0 **** 0.053
44381 H 22.1113 160.563 162.526 H 0 **** 0.053
44382 H 20.7043 159.54 162.103 H 0 **** 0.053
44383 H 23.7806 162.169 159.313 H 0 **** 0.053
44384 H 22.6263 162.109 160.626 H 0 **** 0.053
44385 H 22.0255 162.077 158.94 H 0 **** 0.053
44386 H 23.9473 161.544 156.19 H 0 **** 0.41
44387 H 29.1934 163.426 155.768 H 0 **** 0.053
44388 H 27.5197 163.877 156.152 H 0 **** 0.053
44389 H 27.935 163.372 154.493 H 0 **** 0.053
44390 H 30.4722 160.398 153.996 H 0 **** 0.053
44391 H 30.5796 161.608 155.296 H 0 **** 0.053
44392 H 29.7364 162.002 153.762 H 0 **** 0.053
44393 H 27.5591 157.409 151.561 H 0 **** 0.41
44394 H 24.8025 154.146 155.987 H 0 **** 0.41
44395 H 31.6532 153.089 144.708 H 0 **** 0.053
44396 H 31.1206 154.267 143.513 H 0 **** 0.053
44397 H 30.2916 152.701 143.613 H 0 **** 0.053
44398 H 30.7141 156.451 143.886 H 0 **** 0.053
44399 H 29.1104 157.197 143.939 H 0 **** 0.053
44400 H 29.367 155.753 142.948 H 0 **** 0.053
44401 C 26.6385 136.301 189.461 C.2 0 **** 0
44402 C 27.6579 136.442 190.389 C.2 0 **** 0
44403 C 28.6591 135.487 190.469 C.2 0 **** 0
44404 C 28.6343 134.416 189.61 C.2 0 **** 0
44405 C 27.6463 134.298 188.64 C.2 0 **** 0
44406 C 26.6516 135.25 188.561 C.2 0 **** 0
44407 C 29.7025 133.344 189.688 C.3 0 **** -0.106
44408 C 30.7001 133.388 190.837 C.2 0 **** 0
44409 C 30.7304 134.45 191.697 C.2 0 **** 0
44410 C 29.7742 135.625 191.502 C.3 0 **** -0.106
44411 C 31.6394 134.451 192.759 C.2 0 **** 0
44412 C 32.457 133.365 193.002 C.2 0 **** 0
44413 C 32.4983 132.333 192.072 C.2 0 **** 0
44414 C 31.607 132.325 190.992 C.2 0 **** 0
44415 C 31.6083 131.267 190.095 C.2 0 **** -0.1268
44416 C 32.3504 130.115 190.253 C.2 0 **** 0
44417 C 33.1443 130.094 191.453 C.2 0 **** 0
44418 C 33.3761 131.259 192.189 C.2 0 **** 0.042
44419 C 33.959 128.833 191.805 C.3 0 **** 0
44420 C 33.9309 127.653 190.83 C.3 0 **** 0
44421 C 33.2341 127.864 189.471 C.2 0 **** 0
44422 C 32.4504 129.039 189.228 C.2 0 **** 0
44423 C 34.0521 126.268 191.5 C.3 0 **** -0.106
44424 C 33.1301 126.137 192.716 C.3 0 **** -0.053
44425 C 33.4728 127.189 193.814 C.3 0 **** -0.053
44426 C 34.237 128.424 193.271 C.3 0 **** -0.106
44427 C 31.9239 129.172 187.927 C.2 0 **** 0.042
44428 C 32.1384 128.2 186.973 C.2 0 **** 0.052
44429 C 32.9258 127.09 187.239 C.2 0 **** 0.052
44430 C 33.5224 126.959 188.465 C.2 0 **** 0.042
44431 C 33.1874 126.02 186.212 C.2 0 **** 0.367
44432 C 32.5471 126.209 184.877 C.2 0 **** 0
44433 C 31.7985 127.286 184.608 C.2 0 **** 0
44434 C 31.527 128.351 185.603 C.2 0 **** 0.367
44435 C 31.1446 127.465 183.257 C.3 0 **** -0.106
44436 C 30.7124 126.079 182.718 C.3 0 **** -0.106
44437 C 31.8829 125.095 182.735 C.2 0 **** 0
44438 C 32.7905 125.15 183.817 C.2 0 **** 0.2405
44439 N 33.8353 124.3 183.918 N.2 0 **** -0.481
44440 C 33.9414 123.331 183.014 C.2 0 **** 0.2405
44441 C 33.0838 123.242 181.893 C.2 0 **** 0
44442 C 32.0594 124.145 181.76 C.2 0 **** 0
44443 C 31.0917 124.082 180.585 C.3 0 **** -0.106
44444 C 31.6091 123.211 179.434 C.3 0 **** -0.106
44445 C 32.173 121.899 179.969 C.3 0 **** -0.106
44446 C 33.3954 122.186 180.862 C.3 0 **** -0.053
44447 C 33.8999 120.897 181.562 C.3 0 **** -0.106
44448 C 35.0293 121.234 182.498 C.2 0 **** 0
44449 C 35.0159 122.429 183.219 C.2 0 **** 0
44450 C 36.0582 122.7 184.124 C.2 0 **** -0.1268
44451 C 37.0632 121.77 184.307 C.2 0 **** -0.1268
44452 C 37.0611 120.565 183.627 C.2 0 **** 0
44453 C 36.0264 120.293 182.732 C.2 0 **** 0
44454 C 25.6023 135.165 187.482 C.3 0 **** -0.106
44455 C 24.4439 134.237 187.906 C.3 0 **** -0.159
44456 C 25.5163 137.306 189.439 C.3 0 **** -0.159
44457 C 27.6982 133.1 187.72 C.3 0 **** -0.159
44458 C 27.6779 137.628 191.322 C.3 0 **** -0.159
44459 C 31.6575 135.677 193.672 C.3 0 **** -0.159
44460 C 33.2517 133.376 194.286 C.3 0 **** -0.159
44461 O 34.4167 131.286 193.075 O.3 0 **** -0.452
44462 C 34.3489 126.638 194.939 C.3 0 **** -0.159
44463 C 33.2025 124.686 193.206 C.3 0 **** -0.159
44464 O 34.4019 125.953 188.76 O.3 0 **** -0.452
44465 O 31.2064 130.272 187.588 O.3 0 **** -0.452
44466 O 30.8585 129.293 185.326 O.2 0 **** -0.419
44467 O 33.8413 125.054 186.481 O.2 0 **** -0.419
44468 C 35.994 118.953 182.017 C.3 0 **** -0.159
44469 C 38.1801 119.581 183.905 C.3 0 **** -0.159
44470 H 29.1779 132.362 189.742 H 0 **** 0.053
44471 H 30.2728 133.347 188.727 H 0 **** 0.053
44472 H 30.3767 136.527 191.238 H 0 **** 0.053
44473 H 29.3002 135.84 192.485 H 0 **** 0.053
44474 H 30.9399 131.383 189.272 H 0 **** 0.1268
44475 H 33.819 125.464 190.799 H 0 **** 0.053
44476 H 35.0968 126.167 191.802 H 0 **** 0.053
44477 H 32.0954 126.325 192.376 H 0 **** 0.053
44478 H 32.5236 127.531 194.247 H 0 **** 0.053
44479 H 35.3097 128.212 193.279 H 0 **** 0.053
44480 H 34.0628 129.261 193.959 H 0 **** 0.053
44481 H 30.2621 128.13 183.295 H 0 **** 0.053
44482 H 31.8701 127.94 182.574 H 0 **** 0.053
44483 H 30.2863 126.236 181.712 H 0 **** 0.053
44484 H 29.8759 125.699 183.343 H 0 **** 0.053
44485 H 30.1219 123.675 180.932 H 0 **** 0.053
44486 H 30.8832 125.087 180.177 H 0 **** 0.053
44487 H 32.4073 123.748 178.887 H 0 **** 0.053
44488 H 30.8033 123.021 178.7 H 0 **** 0.053
44489 H 32.4613 121.22 179.144 H 0 **** 0.053
44490 H 31.3992 121.374 180.559 H 0 **** 0.053
44491 H 34.2133 122.56 180.199 H 0 **** 0.053
44492 H 33.0573 120.438 182.127 H 0 **** 0.053
44493 H 34.1862 120.162 180.777 H 0 **** 0.053
44494 H 36.0787 123.637 184.694 H 0 **** 0.1268
44495 H 37.8729 121.986 185.022 H 0 **** 0.1268
44496 H 26.0196 134.809 186.52 H 0 **** 0.053
44497 H 25.1871 136.156 187.225 H 0 **** 0.053
44498 H 23.9697 134.594 188.835 H 0 **** 0.053
44499 H 24.796 133.207 188.079 H 0 **** 0.053
44500 H 23.6539 134.189 187.13 H 0 **** 0.053
44501 H 25.3106 137.744 190.436 H 0 **** 0.053
44502 H 24.5498 136.864 189.131 H 0 **** 0.053
44503 H 25.7263 138.151 188.747 H 0 **** 0.053
44504 H 27.6044 132.146 188.287 H 0 **** 0.053
44505 H 28.6556 133.05 187.158 H 0 **** 0.053
44506 H 26.9038 133.061 186.96 H 0 **** 0.053
44507 H 28.6902 137.886 191.689 H 0 **** 0.053
44508 H 27.0464 137.453 192.221 H 0 **** 0.053
44509 H 27.3129 138.553 190.837 H 0 **** 0.053
44510 H 32.6611 135.885 194.083 H 0 **** 0.053
44511 H 30.9567 135.567 194.531 H 0 **** 0.053
44512 H 31.3788 136.621 193.15 H 0 **** 0.053
44513 H 33.2504 132.382 194.787 H 0 **** 0.053
44514 H 32.8472 134.055 195.085 H 0 **** 0.053
44515 H 34.323 133.673 194.142 H 0 **** 0.053
44516 H 35.0518 130.603 192.842 H 0 **** 0.41
44517 H 33.8352 125.843 195.492 H 0 **** 0.053
44518 H 34.5968 127.439 195.659 H 0 **** 0.053
44519 H 35.3044 126.237 194.549 H 0 **** 0.053
44520 H 32.877 123.989 192.41 H 0 **** 0.053
44521 H 32.5489 124.523 194.076 H 0 **** 0.053
44522 H 34.237 124.4 193.482 H 0 **** 0.053
44523 H 34.3982 125.322 188.025 H 0 **** 0.41
44524 H 30.8747 130.186 186.681 H 0 **** 0.41
44525 H 35.0041 118.468 182.109 H 0 **** 0.053
44526 H 36.72 118.219 182.416 H 0 **** 0.053
44527 H 36.2186 119.059 180.935 H 0 **** 0.053
44528 H 37.8015 118.641 184.346 H 0 **** 0.053
44529 H 38.9208 119.984 184.617 H 0 **** 0.053
44530 H 38.7359 119.321 182.987 H 0 **** 0.053
44531 C 41.3045 186.36 100.693 C.2 0 **** 0
44532 C 41.057 185.009 100.501 C.2 0 **** 0
44533 C 42.1131 184.131 100.319 C.2 0 **** 0
44534 C 43.3985 184.613 100.347 C.2 0 **** 0
44535 C 43.6557 185.956 100.594 C.2 0 **** 0
44536 C 42.6034 186.828 100.777 C.2 0 **** 0
44537 C 44.5732 183.68 100.129 C.3 0 **** -0.106
44538 C 44.2973 182.242 99.7138 C.2 0 **** 0
44539 C 43.0201 181.755 99.6833 C.2 0 **** 0
44540 C 41.848 182.646 100.089 C.3 0 **** -0.106
44541 C 42.7942 180.437 99.2729 C.2 0 **** 0
44542 C 43.8292 179.64 98.8264 C.2 0 **** 0
44543 C 45.1353 180.098 98.954 C.2 0 **** 0
44544 C 45.3799 181.41 99.3796 C.2 0 **** 0
44545 C 46.6798 181.887 99.4525 C.2 0 **** -0.1268
44546 C 47.7875 181.2 99.0009 C.2 0 **** 0
44547 C 47.4812 179.913 98.4316 C.2 0 **** 0
44548 C 46.2364 179.31 98.6309 C.2 0 **** 0.042
44549 C 48.6102 179.07 97.8069 C.3 0 **** 0
44550 C 50.0395 179.616 97.8571 C.3 0 **** 0
44551 C 50.2904 180.891 98.6862 C.2 0 **** 0
44552 C 49.1913 181.657 99.1969 C.2 0 **** 0
44553 C 50.9182 179.218 96.6521 C.3 0 **** -0.106
44554 C 50.1868 179.414 95.3204 C.3 0 **** -0.053
44555 C 48.8998 178.538 95.2344 C.3 0 **** -0.053
44556 C 48.3504 178.11 96.6208 C.3 0 **** -0.106
44557 C 49.5305 182.758 100.008 C.2 0 **** 0.042
44558 C 50.8488 183.076 100.256 C.2 0 **** 0.052
44559 C 51.884 182.295 99.7666 C.2 0 **** 0.052
44560 C 51.5987 181.17 99.0383 C.2 0 **** 0.042
44561 C 53.3325 182.612 100.032 C.2 0 **** 0.367
44562 C 53.606 183.827 100.855 C.2 0 **** 0
44563 C 52.612 184.578 101.344 C.2 0 **** 0
44564 C 51.18 184.285 101.094 C.2 0 **** 0.367
44565 C 52.8978 185.813 102.167 C.3 0 **** -0.106
44566 C 54.1765 186.498 101.622 C.3 0 **** -0.106
44567 C 55.3356 185.504 101.538 C.2 0 **** 0
44568 C 55.0553 184.177 101.142 C.2 0 **** 0.2405
44569 N 56.0266 183.247 101.018 N.2 0 **** -0.481
44570 C 57.2868 183.634 101.187 C.2 0 **** 0.2405
44571 C 57.629 184.939 101.613 C.2 0 **** 0
44572 C 56.6341 185.866 101.797 C.2 0 **** 0
44573 C 56.947 187.292 102.232 C.3 0 **** -0.106
44574 C 58.3631 187.444 102.8 C.3 0 **** -0.106
44575 C 59.3747 186.728 101.912 C.3 0 **** -0.106
44576 C 59.0819 185.215 101.91 C.3 0 **** -0.053
44577 C 59.9808 184.467 100.89 C.3 0 **** -0.106
44578 C 59.5983 183.012 100.845 C.2 0 **** 0
44579 C 58.2619 182.628 100.971 C.2 0 **** 0
44580 C 57.9241 181.266 100.879 C.2 0 **** -0.1268
44581 C 58.9125 180.332 100.636 C.2 0 **** -0.1268
44582 C 60.2333 180.709 100.467 C.2 0 **** 0
44583 C 60.5699 182.059 100.555 C.2 0 **** 0
44584 C 42.8655 188.278 101.097 C.3 0 **** -0.106
44585 C 43.0979 189.097 99.8103 C.3 0 **** -0.159
44586 C 40.1437 187.313 100.813 C.3 0 **** -0.159
44587 C 45.0985 186.405 100.626 C.3 0 **** -0.159
44588 C 39.6395 184.492 100.483 C.3 0 **** -0.159
44589 C 41.352 179.93 99.2896 C.3 0 **** -0.159
44590 C 43.458 178.31 98.2136 C.3 0 **** -0.159
44591 O 46.1108 177.966 98.4203 O.3 0 **** -0.452
44592 C 49.092 177.234 94.4572 C.3 0 **** -0.159
44593 C 51.1914 179.151 94.1921 C.3 0 **** -0.159
44594 O 52.5612 180.291 98.6204 O.3 0 **** -0.452
44595 O 48.5584 183.518 100.572 O.3 0 **** -0.452
44596 O 50.3249 184.976 101.546 O.2 0 **** -0.419
44597 O 54.2055 181.941 99.5635 O.2 0 **** -0.419
44598 C 62.0109 182.484 100.327 C.3 0 **** -0.159
44599 C 61.2562 179.63 100.173 C.3 0 **** -0.159
44600 H 45.2109 184.136 99.3366 H 0 **** 0.053
44601 H 45.187 183.665 101.063 H 0 **** 0.053
44602 H 41.3976 182.229 101.022 H 0 **** 0.053
44603 H 41.0696 182.56 99.2991 H 0 **** 0.053
44604 H 46.7687 182.873 99.8496 H 0 **** 0.1268
44605 H 51.8455 179.793 96.6268 H 0 **** 0.053
44606 H 51.1725 178.165 96.7952 H 0 **** 0.053
44607 H 49.8821 180.474 95.2566 H 0 **** 0.053
44608 H 48.131 179.136 94.7273 H 0 **** 0.053
44609 H 48.8429 177.183 96.9282 H 0 **** 0.053
44610 H 47.2811 177.893 96.5105 H 0 **** 0.053
44611 H 52.064 186.538 102.151 H 0 **** 0.053
44612 H 53.0359 185.511 103.22 H 0 **** 0.053
44613 H 54.3871 187.364 102.273 H 0 **** 0.053
44614 H 53.9534 186.922 100.62 H 0 **** 0.053
44615 H 56.8363 187.972 101.364 H 0 **** 0.053
44616 H 56.237 187.646 103.001 H 0 **** 0.053
44617 H 58.4065 187.009 103.817 H 0 **** 0.053
44618 H 58.624 188.514 102.908 H 0 **** 0.053
44619 H 60.4108 186.909 102.256 H 0 **** 0.053
44620 H 59.3086 187.119 100.881 H 0 **** 0.053
44621 H 59.3216 184.826 102.929 H 0 **** 0.053
44622 H 59.8502 184.928 99.8845 H 0 **** 0.053
44623 H 61.043 184.631 101.174 H 0 **** 0.053
44624 H 56.8838 180.936 100.99 H 0 **** 0.1268
44625 H 58.6404 179.267 100.56 H 0 **** 0.1268
44626 H 43.7345 188.406 101.772 H 0 **** 0.053
44627 H 42.0365 188.736 101.665 H 0 **** 0.053
44628 H 42.2271 189.034 99.137 H 0 **** 0.053
44629 H 43.9801 188.736 99.257 H 0 **** 0.053
44630 H 43.2653 190.17 100.033 H 0 **** 0.053
44631 H 39.2536 186.981 100.244 H 0 **** 0.053
44632 H 40.3691 188.317 100.406 H 0 **** 0.053
44633 H 39.8245 187.451 101.87 H 0 **** 0.053
44634 H 45.6022 186.232 99.6488 H 0 **** 0.053
44635 H 45.685 185.857 101.395 H 0 **** 0.053
44636 H 45.2491 187.473 100.842 H 0 **** 0.053
44637 H 39.5548 183.424 100.764 H 0 **** 0.053
44638 H 39.1789 184.595 99.4751 H 0 **** 0.053
44639 H 38.9866 185.023 101.201 H 0 **** 0.053
44640 H 41.2852 178.85 99.5073 H 0 **** 0.053
44641 H 40.8361 180.113 98.3191 H 0 **** 0.053
44642 H 40.7267 180.404 100.08 H 0 **** 0.053
44643 H 44.0528 178.091 97.2992 H 0 **** 0.053
44644 H 42.3995 178.242 97.8418 H 0 **** 0.053
44645 H 43.5961 177.445 98.9141 H 0 **** 0.053
44646 H 46.978 177.554 98.4574 H 0 **** 0.41
44647 H 49.3407 177.422 93.404 H 0 **** 0.053
44648 H 48.1627 176.634 94.4735 H 0 **** 0.053
44649 H 49.8926 176.613 94.9047 H 0 **** 0.053
44650 H 52.0459 179.85 94.2593 H 0 **** 0.053
44651 H 50.7289 179.288 93.2033 H 0 **** 0.053
44652 H 51.6078 178.125 94.2486 H 0 **** 0.053
44653 H 53.4287 180.679 98.8104 H 0 **** 0.41
44654 H 48.954 184.256 101.06 H 0 **** 0.41
44655 H 62.079 183.31 99.5944 H 0 **** 0.053
44656 H 62.6524 181.677 99.9231 H 0 **** 0.053
44657 H 62.4925 182.825 101.267 H 0 **** 0.053
44658 H 61.7223 179.765 99.1794 H 0 **** 0.053
44659 H 60.8083 178.621 100.173 H 0 **** 0.053
44660 H 62.0655 179.614 100.924 H 0 **** 0.053
44661 C 9.05184 141.054 155.205 C.2 0 **** 0
44662 C 8.49992 141.266 153.951 C.2 0 **** 0
44663 C 7.92495 142.49 153.646 C.2 0 **** 0
44664 C 7.92384 143.485 154.591 C.2 0 **** 0
44665 C 8.52465 143.298 155.83 C.2 0 **** 0
44666 C 9.09874 142.08 156.132 C.2 0 **** 0
44667 C 7.28249 144.826 154.295 C.3 0 **** -0.106
44668 C 6.49644 144.99 153.001 C.2 0 **** 0
44669 C 6.49168 144.003 152.055 C.2 0 **** 0
44670 C 7.29765 142.725 152.274 C.3 0 **** -0.106
44671 C 5.73884 144.17 150.889 C.2 0 **** 0
44672 C 4.93964 145.282 150.706 C.2 0 **** 0
44673 C 5.02422 146.328 151.618 C.2 0 **** 0
44674 C 5.78746 146.184 152.782 C.2 0 **** 0
44675 C 5.82653 147.205 153.72 C.2 0 **** -0.1268
44676 C 5.04693 148.342 153.665 C.2 0 **** 0
44677 C 4.16393 148.387 152.529 C.2 0 **** 0
44678 C 4.33569 147.525 151.443 C.2 0 **** 0.042
44679 C 3.17116 149.557 152.383 C.3 0 **** 0
44680 C 3.19288 150.666 153.439 C.3 0 **** 0
44681 C 4.32478 150.636 154.485 C.2 0 **** 0
44682 C 5.18249 149.493 154.6 C.2 0 **** 0
44683 C 1.81865 151.312 153.714 C.3 0 **** -0.106
44684 C 0.715957 150.263 153.885 C.3 0 **** -0.053
44685 C 0.54315 149.392 152.603 C.3 0 **** -0.053
44686 C 1.79794 149.381 151.691 C.3 0 **** -0.106
44687 C 6.23397 149.602 155.532 C.2 0 **** 0.042
44688 C 6.38876 150.738 156.297 C.2 0 **** 0.052
44689 C 5.55427 151.834 156.138 C.2 0 **** 0.052
44690 C 4.56725 151.803 155.188 C.2 0 **** 0.042
44691 C 5.70787 153.092 156.951 C.2 0 **** 0.367
44692 C 6.81265 153.103 157.955 C.2 0 **** 0
44693 C 7.63171 152.055 158.104 C.2 0 **** 0
44694 C 7.49864 150.807 157.315 C.2 0 **** 0.367
44695 C 8.74111 152.07 159.131 C.3 0 **** -0.106
44696 C 8.26159 152.85 160.38 C.3 0 **** -0.106
44697 C 7.73031 154.231 159.994 C.2 0 **** 0
44698 C 6.99624 154.356 158.793 C.2 0 **** 0.2405
44699 N 6.47169 155.535 158.394 N.2 0 **** -0.481
44700 C 6.58054 156.576 159.214 C.2 0 **** 0.2405
44701 C 7.32746 156.521 160.414 C.2 0 **** 0
44702 C 7.9109 155.336 160.787 C.2 0 **** 0
44703 C 8.70708 155.215 162.08 C.3 0 **** -0.106
44704 C 9.10189 156.576 162.667 C.3 0 **** -0.106
44705 C 7.91392 157.532 162.644 C.3 0 **** -0.106
44706 C 7.49773 157.806 161.186 C.3 0 **** -0.053
44707 C 6.19102 158.64 161.119 C.3 0 **** -0.106
44708 C 5.76366 158.803 159.684 C.2 0 **** 0
44709 C 5.94567 157.763 158.77 C.2 0 **** 0
44710 C 5.49551 157.921 157.447 C.2 0 **** -0.1268
44711 C 4.85547 159.089 157.079 C.2 0 **** -0.1268
44712 C 4.63352 160.107 157.989 C.2 0 **** 0
44713 C 5.07602 159.95 159.303 C.2 0 **** 0
44714 C 9.79953 141.876 157.451 C.3 0 **** -0.106
44715 C 8.79799 141.485 158.558 C.3 0 **** -0.159
44716 C 9.60365 139.695 155.548 C.3 0 **** -0.159
44717 C 8.49781 144.448 156.811 C.3 0 **** -0.159
44718 C 8.51501 140.166 152.918 C.3 0 **** -0.159
44719 C 5.7943 143.053 149.847 C.3 0 **** -0.159
44720 C 4.01154 145.273 149.514 C.3 0 **** -0.159
44721 O 3.74765 147.838 150.25 O.3 0 **** -0.452
44722 C -0.606649 149.844 151.701 C.3 0 **** -0.159
44723 C -0.562057 150.993 154.314 C.3 0 **** -0.159
44724 O 3.78092 152.885 154.898 O.3 0 **** -0.452
44725 O 7.12369 148.588 155.681 O.3 0 **** -0.452
44726 O 8.24584 149.897 157.476 O.2 0 **** -0.419
44727 O 4.94876 154.008 156.818 O.2 0 **** -0.419
44728 C 4.79628 161.046 160.318 C.3 0 **** -0.159
44729 C 3.89652 161.345 157.518 C.3 0 **** -0.159
44730 H 6.5856 145.049 155.136 H 0 **** 0.053
44731 H 8.07857 145.61 154.325 H 0 **** 0.053
44732 H 8.11405 142.69 151.513 H 0 **** 0.053
44733 H 6.62889 141.863 152.056 H 0 **** 0.053
44734 H 6.485 147.029 154.541 H 0 **** 0.1268
44735 H 1.84377 151.938 154.607 H 0 **** 0.053
44736 H 1.6055 151.951 152.854 H 0 **** 0.053
44737 H 1.01353 149.594 154.713 H 0 **** 0.053
44738 H 0.34529 148.363 152.931 H 0 **** 0.053
44739 H 1.74625 150.23 151.004 H 0 **** 0.053
44740 H 1.77038 148.467 151.086 H 0 **** 0.053
44741 H 9.05383 151.055 159.436 H 0 **** 0.053
44742 H 9.6274 152.555 158.685 H 0 **** 0.053
44743 H 9.10803 152.888 161.088 H 0 **** 0.053
44744 H 7.47114 152.257 160.888 H 0 **** 0.053
44745 H 8.10593 154.665 162.83 H 0 **** 0.053
44746 H 9.63435 154.632 161.932 H 0 **** 0.053
44747 H 9.92685 157.013 162.074 H 0 **** 0.053
44748 H 9.48934 156.455 163.696 H 0 **** 0.053
44749 H 8.15622 158.485 163.151 H 0 **** 0.053
44750 H 7.06558 157.085 163.194 H 0 **** 0.053
44751 H 8.31308 158.405 160.712 H 0 **** 0.053
44752 H 5.39646 158.116 161.698 H 0 **** 0.053
44753 H 6.36741 159.609 161.635 H 0 **** 0.053
44754 H 5.63952 157.126 156.705 H 0 **** 0.1268
44755 H 4.50139 159.204 156.041 H 0 **** 0.1268
44756 H 10.3598 142.777 157.77 H 0 **** 0.053
44757 H 10.5832 141.1 157.391 H 0 **** 0.053
44758 H 8.25844 140.56 158.296 H 0 **** 0.053
44759 H 8.05002 142.278 158.722 H 0 **** 0.053
44760 H 9.30735 141.308 159.526 H 0 **** 0.053
44761 H 9.08441 138.873 155.017 H 0 **** 0.053
44762 H 9.48976 139.443 156.619 H 0 **** 0.053
44763 H 10.6856 139.61 155.304 H 0 **** 0.053
44764 H 7.45539 144.73 157.081 H 0 **** 0.053
44765 H 8.9825 145.357 156.395 H 0 **** 0.053
44766 H 9.00059 144.255 157.77 H 0 **** 0.053
44767 H 8.47233 140.538 151.876 H 0 **** 0.053
44768 H 7.65529 139.472 153.046 H 0 **** 0.053
44769 H 9.43942 139.559 152.961 H 0 **** 0.053
44770 H 5.68552 143.43 148.814 H 0 **** 0.053
44771 H 5.00012 142.29 150.013 H 0 **** 0.053
44772 H 6.76598 142.509 149.834 H 0 **** 0.053
44773 H 3.00265 145.668 149.766 H 0 **** 0.053
44774 H 3.78085 144.252 149.104 H 0 **** 0.053
44775 H 4.39662 145.874 148.649 H 0 **** 0.053
44776 H 3.55523 148.779 150.225 H 0 **** 0.41
44777 H -1.57881 149.749 152.203 H 0 **** 0.053
44778 H -0.647204 149.223 150.786 H 0 **** 0.053
44779 H -0.475628 150.896 151.378 H 0 **** 0.053
44780 H -0.40256 151.532 155.267 H 0 **** 0.053
44781 H -1.39386 150.289 154.467 H 0 **** 0.053
44782 H -0.870528 151.748 153.564 H 0 **** 0.053
44783 H 3.96354 153.576 155.552 H 0 **** 0.41
44784 H 7.75176 148.799 156.388 H 0 **** 0.41
44785 H 4.34216 160.637 161.24 H 0 **** 0.053
44786 H 4.08816 161.815 159.957 H 0 **** 0.053
44787 H 5.72257 161.584 160.607 H 0 **** 0.053
44788 H 2.93645 161.479 158.049 H 0 **** 0.053
44789 H 3.65387 161.3 156.442 H 0 **** 0.053
44790 H 4.49401 162.261 157.668 H 0 **** 0.053
44791 C 13.3531 157.304 168.461 C.2 0 **** 0
44792 C 13.5379 155.93 168.481 C.2 0 **** 0
44793 C 14.1212 155.294 167.396 C.2 0 **** 0
44794 C 14.5238 156.042 166.317 C.2 0 **** 0
44795 C 14.392 157.425 166.314 C.2 0 **** 0
44796 C 13.8133 158.057 167.395 C.2 0 **** 0
44797 C 15.1444 155.372 165.107 C.3 0 **** -0.106
44798 C 15.1582 153.851 165.04 C.2 0 **** 0
44799 C 14.7578 153.1 166.11 C.2 0 **** 0
44800 C 14.3104 153.78 167.402 C.3 0 **** -0.106
44801 C 14.7553 151.705 166.01 C.2 0 **** 0
44802 C 15.0786 151.072 164.826 C.2 0 **** 0
44803 C 15.5821 151.829 163.775 C.2 0 **** 0
44804 C 15.6084 153.226 163.864 C.2 0 **** 0
44805 C 16.0572 153.984 162.794 C.2 0 **** -0.1268
44806 C 16.3709 153.469 161.553 C.2 0 **** 0
44807 C 16.1888 152.044 161.452 C.2 0 **** 0
44808 C 16.0327 151.251 162.591 C.2 0 **** 0.042
44809 C 16.4172 151.343 160.098 C.3 0 **** 0
44810 C 16.8785 152.188 158.909 C.3 0 **** 0
44811 C 17.2617 153.656 159.18 C.2 0 **** 0
44812 C 16.9764 154.261 160.449 C.2 0 **** 0
44813 C 16.3641 151.699 157.539 C.3 0 **** -0.106
44814 C 14.8675 151.373 157.572 C.3 0 **** -0.053
44815 C 14.5455 150.24 158.593 C.3 0 **** -0.053
44816 C 15.6273 150.075 159.693 C.3 0 **** -0.106
44817 C 17.4386 155.581 160.621 C.2 0 **** 0.042
44818 C 18.0958 156.239 159.603 C.2 0 **** 0.052
44819 C 18.3815 155.608 158.4 C.2 0 **** 0.052
44820 C 18.0167 154.301 158.218 C.2 0 **** 0.042
44821 C 19.1073 156.298 157.275 C.2 0 **** 0.367
44822 C 19.4949 157.72 157.512 C.2 0 **** 0
44823 C 19.2215 158.33 158.669 C.2 0 **** 0
44824 C 18.5267 157.67 159.794 C.2 0 **** 0.367
44825 C 19.573 159.774 158.88 C.3 0 **** -0.106
44826 C 19.4645 160.561 157.567 C.3 0 **** -0.106
44827 C 20.2372 159.86 156.444 C.2 0 **** 0
44828 C 20.2379 158.447 156.405 C.2 0 **** 0.2405
44829 N 20.8584 157.759 155.421 N.2 0 **** -0.481
44830 C 21.4062 158.449 154.426 C.2 0 **** 0.2405
44831 C 21.4718 159.862 154.428 C.2 0 **** 0
44832 C 20.8925 160.558 155.459 C.2 0 **** 0
44833 C 20.9164 162.081 155.501 C.3 0 **** -0.106
44834 C 21.9373 162.692 154.533 C.3 0 **** -0.106
44835 C 21.8561 162.011 153.172 C.3 0 **** -0.106
44836 C 22.2388 160.524 153.311 C.3 0 **** -0.053
44837 C 22.0047 159.757 151.982 C.3 0 **** -0.106
44838 C 22.2951 158.293 152.183 C.2 0 **** 0
44839 C 21.9707 157.667 153.387 C.2 0 **** 0
44840 C 22.204 156.287 153.532 C.2 0 **** -0.1268
44841 C 22.7245 155.567 152.474 C.2 0 **** -0.1268
44842 C 23.0124 156.173 151.264 C.2 0 **** 0
44843 C 22.7763 157.54 151.116 C.2 0 **** 0
44844 C 13.7097 159.56 167.43 C.3 0 **** -0.106
44845 C 12.4483 160.048 166.687 C.3 0 **** -0.159
44846 C 12.648 157.97 169.614 C.3 0 **** -0.159
44847 C 14.876 158.178 165.096 C.3 0 **** -0.159
44848 C 13.0985 155.122 169.677 C.3 0 **** -0.159
44849 C 14.3321 150.91 167.246 C.3 0 **** -0.159
44850 C 14.8481 149.581 164.759 C.3 0 **** -0.159
44851 O 16.2454 149.905 162.493 O.3 0 **** -0.452
44852 C 14.4054 148.856 157.955 C.3 0 **** -0.159
44853 C 14.4256 151.058 156.138 C.3 0 **** -0.159
44854 O 18.3566 153.585 157.103 O.3 0 **** -0.452
44855 O 17.2486 156.226 161.799 O.3 0 **** -0.452
44856 O 18.3204 158.244 160.816 O.2 0 **** -0.419
44857 O 19.3076 155.739 156.235 O.2 0 **** -0.419
44858 C 23.044 158.202 149.775 C.3 0 **** -0.159
44859 C 23.5514 155.313 150.139 C.3 0 **** -0.159
44860 H 14.592 155.738 164.211 H 0 **** 0.053
44861 H 16.1954 155.738 165.004 H 0 **** 0.053
44862 H 15.0472 153.529 168.203 H 0 **** 0.053
44863 H 13.3455 153.319 167.709 H 0 **** 0.053
44864 H 16.102 155.033 162.981 H 0 **** 0.1268
44865 H 16.5411 152.44 156.757 H 0 **** 0.053
44866 H 16.9432 150.804 157.299 H 0 **** 0.053
44867 H 14.3325 152.284 157.895 H 0 **** 0.053
44868 H 13.5952 150.498 159.079 H 0 **** 0.053
44869 H 16.4032 149.395 159.33 H 0 **** 0.053
44870 H 15.1573 149.602 160.564 H 0 **** 0.053
44871 H 19.0031 160.263 159.681 H 0 **** 0.053
44872 H 20.6165 159.795 159.184 H 0 **** 0.053
44873 H 19.8395 161.581 157.775 H 0 **** 0.053
44874 H 18.3943 160.67 157.304 H 0 **** 0.053
44875 H 19.9104 162.468 155.247 H 0 **** 0.053
44876 H 21.1472 162.453 156.516 H 0 **** 0.053
44877 H 22.9603 162.568 154.929 H 0 **** 0.053
44878 H 21.7763 163.782 154.439 H 0 **** 0.053
44879 H 22.5211 162.503 152.437 H 0 **** 0.053
44880 H 20.8274 162.094 152.776 H 0 **** 0.053
44881 H 23.3297 160.477 153.545 H 0 **** 0.053
44882 H 20.9471 159.899 151.662 H 0 **** 0.053
44883 H 22.6344 160.224 151.194 H 0 **** 0.053
44884 H 21.9663 155.776 154.473 H 0 **** 0.1268
44885 H 22.8868 154.484 152.59 H 0 **** 0.1268
44886 H 14.6015 160.05 166.993 H 0 **** 0.053
44887 H 13.6876 159.952 168.463 H 0 **** 0.053
44888 H 11.5354 159.619 167.132 H 0 **** 0.053
44889 H 12.473 159.763 165.623 H 0 **** 0.053
44890 H 12.3495 161.151 166.73 H 0 **** 0.053
44891 H 11.904 157.312 170.103 H 0 **** 0.053
44892 H 12.0648 158.859 169.306 H 0 **** 0.053
44893 H 13.3588 158.303 170.403 H 0 **** 0.053
44894 H 14.3207 157.875 164.18 H 0 **** 0.053
44895 H 15.954 157.995 164.898 H 0 **** 0.053
44896 H 14.765 159.271 165.15 H 0 **** 0.053
44897 H 13.6558 154.173 169.798 H 0 **** 0.053
44898 H 12.0202 154.854 169.617 H 0 **** 0.053
44899 H 13.2531 155.661 170.631 H 0 **** 0.053
44900 H 14.848 149.936 167.32 H 0 **** 0.053
44901 H 13.2356 150.713 167.258 H 0 **** 0.053
44902 H 14.5779 151.42 168.205 H 0 **** 0.053
44903 H 14.3995 149.27 163.789 H 0 **** 0.053
44904 H 14.1124 149.183 165.51 H 0 **** 0.053
44905 H 15.7855 148.982 164.898 H 0 **** 0.053
44906 H 16.7938 149.724 161.725 H 0 **** 0.41
44907 H 13.559 148.814 157.257 H 0 **** 0.053
44908 H 14.2291 148.088 158.732 H 0 **** 0.053
44909 H 15.3271 148.568 157.412 H 0 **** 0.053
44910 H 14.6087 151.924 155.474 H 0 **** 0.053
44911 H 13.3509 150.827 156.091 H 0 **** 0.053
44912 H 14.9905 150.202 155.717 H 0 **** 0.053
44913 H 18.7594 154.194 156.465 H 0 **** 0.41
44914 H 17.5826 157.134 161.736 H 0 **** 0.41
44915 H 22.1781 158.803 149.437 H 0 **** 0.053
44916 H 23.2408 157.484 148.956 H 0 **** 0.053
44917 H 23.9252 158.876 149.818 H 0 **** 0.053
44918 H 22.8623 155.288 149.274 H 0 **** 0.053
44919 H 23.6972 154.263 150.449 H 0 **** 0.053
44920 H 24.5298 155.673 149.775 H 0 **** 0.053
44921 C 47.1099 96.2814 136.229 C.2 0 **** 0
44922 C 47.9398 97.0671 135.444 C.2 0 **** 0
44923 C 48.0481 98.4255 135.696 C.2 0 **** 0
44924 C 47.3378 98.9736 136.735 C.2 0 **** 0
44925 C 46.548 98.1819 137.561 C.2 0 **** 0
44926 C 46.4433 96.8293 137.311 C.2 0 **** 0
44927 C 47.4173 100.46 137.02 C.3 0 **** -0.106
44928 C 48.1613 101.354 136.037 C.2 0 **** 0
44929 C 48.8703 100.816 135 C.2 0 **** 0
44930 C 48.9447 99.3008 134.824 C.3 0 **** -0.106
44931 C 49.5213 101.663 134.096 C.2 0 **** 0
44932 C 49.3991 103.035 134.189 C.2 0 **** 0
44933 C 48.7664 103.582 135.299 C.2 0 **** 0
44934 C 48.1251 102.747 136.223 C.2 0 **** 0
44935 C 47.4438 103.294 137.3 C.2 0 **** -0.1268
44936 C 47.2249 104.644 137.478 C.2 0 **** 0
44937 C 47.7718 105.465 136.429 C.2 0 **** 0
44938 C 48.7015 104.954 135.52 C.2 0 **** 0.042
44939 C 47.5293 106.987 136.45 C.3 0 **** 0
44940 C 46.7479 107.584 137.624 C.3 0 **** 0
44941 C 46.4032 106.652 138.802 C.2 0 **** 0
44942 C 46.6086 105.237 138.697 C.2 0 **** 0
44943 C 45.8981 108.821 137.262 C.3 0 **** -0.106
44944 C 45.0927 108.606 135.976 C.3 0 **** -0.053
44945 C 46.0198 108.337 134.752 C.3 0 **** -0.053
44946 C 47.4266 107.816 135.147 C.3 0 **** -0.106
44947 C 46.3372 104.486 139.859 C.2 0 **** 0.042
44948 C 45.8739 105.096 141.005 C.2 0 **** 0.052
44949 C 45.7137 106.472 141.076 C.2 0 **** 0.052
44950 C 46.0405 107.249 139.996 C.2 0 **** 0.042
44951 C 45.2206 107.167 142.318 C.2 0 **** 0.367
44952 C 44.9043 106.292 143.486 C.2 0 **** 0
44953 C 45.0712 104.965 143.43 C.2 0 **** 0
44954 C 45.5536 104.261 142.218 C.2 0 **** 0.367
44955 C 44.738 104.085 144.614 C.3 0 **** -0.106
44956 C 43.5055 104.672 145.346 C.3 0 **** -0.106
44957 C 43.7209 106.147 145.687 C.2 0 **** 0
44958 C 44.4058 106.959 144.755 C.2 0 **** 0.2405
44959 N 44.6156 108.275 144.971 N.2 0 **** -0.481
44960 C 44.0713 108.825 146.052 C.2 0 **** 0.2405
44961 C 43.4017 108.062 147.036 C.2 0 **** 0
44962 C 43.244 106.712 146.844 C.2 0 **** 0
44963 C 42.5115 105.845 147.86 C.3 0 **** -0.106
44964 C 42.3462 106.532 149.221 C.3 0 **** -0.106
44965 C 41.8785 107.972 149.038 C.3 0 **** -0.106
44966 C 42.9577 108.776 148.288 C.3 0 **** -0.053
44967 C 42.4564 110.201 147.933 C.3 0 **** -0.106
44968 C 43.4982 110.919 147.117 C.2 0 **** 0
44969 C 44.2659 110.224 146.181 C.2 0 **** 0
44970 C 45.201 110.925 145.399 C.2 0 **** -0.1268
44971 C 45.3259 112.293 145.546 C.2 0 **** -0.1268
44972 C 44.5384 112.996 146.441 C.2 0 **** 0
44973 C 43.6084 112.303 147.216 C.2 0 **** 0
44974 C 45.6316 95.9481 138.226 C.3 0 **** -0.106
44975 C 44.1392 95.9629 137.832 C.3 0 **** -0.159
44976 C 46.9432 94.822 135.894 C.3 0 **** -0.159
44977 C 45.8115 98.8569 138.695 C.3 0 **** -0.159
44978 C 48.7213 96.4509 134.309 C.3 0 **** -0.159
44979 C 50.3283 101.011 132.973 C.3 0 **** -0.159
44980 C 49.9637 103.854 133.053 C.3 0 **** -0.159
44981 O 49.47 105.826 134.801 O.3 0 **** -0.452
44982 C 46.2761 109.573 133.888 C.3 0 **** -0.159
44983 C 44.1671 109.816 135.797 C.3 0 **** -0.159
44984 O 46.0181 108.617 140.031 O.3 0 **** -0.452
44985 O 46.5427 103.145 139.871 O.3 0 **** -0.452
44986 O 45.6897 103.079 142.209 O.2 0 **** -0.419
44987 O 45.0568 108.351 142.338 O.2 0 **** -0.419
44988 C 42.711 113.074 148.169 C.3 0 **** -0.159
44989 C 44.7112 114.499 146.524 C.3 0 **** -0.159
44990 H 46.3707 100.838 137.084 H 0 **** 0.053
44991 H 47.8686 100.599 138.033 H 0 **** 0.053
44992 H 50.0018 98.9803 134.988 H 0 **** 0.053
44993 H 48.7094 99.0732 133.761 H 0 **** 0.053
44994 H 47.0437 102.578 137.982 H 0 **** 0.1268
44995 H 45.2066 109.079 138.066 H 0 **** 0.053
44996 H 46.6015 109.647 137.137 H 0 **** 0.053
44997 H 44.4555 107.716 136.123 H 0 **** 0.053
44998 H 45.5298 107.574 134.133 H 0 **** 0.053
44999 H 48.0841 108.67 135.333 H 0 **** 0.053
45000 H 47.8374 107.266 134.291 H 0 **** 0.053
45001 H 44.523 103.041 144.322 H 0 **** 0.053
45002 H 45.6128 104.053 145.286 H 0 **** 0.053
45003 H 43.3192 104.04 146.232 H 0 **** 0.053
45004 H 42.6134 104.551 144.696 H 0 **** 0.053
45005 H 41.5092 105.588 147.466 H 0 **** 0.053
45006 H 43.0376 104.888 148.029 H 0 **** 0.053
45007 H 43.3134 106.535 149.758 H 0 **** 0.053
45008 H 41.6386 105.967 149.856 H 0 **** 0.053
45009 H 41.6628 108.451 150.012 H 0 **** 0.053
45010 H 40.9371 107.988 148.459 H 0 **** 0.053
45011 H 43.8343 108.881 148.973 H 0 **** 0.053
45012 H 41.5082 110.118 147.354 H 0 **** 0.053
45013 H 42.202 110.728 148.878 H 0 **** 0.053
45014 H 45.8279 110.401 144.667 H 0 **** 0.1268
45015 H 46.0577 112.837 144.927 H 0 **** 0.1268
45016 H 45.7301 96.2452 139.288 H 0 **** 0.053
45017 H 45.9883 94.9028 138.223 H 0 **** 0.053
45018 H 43.9996 95.6206 136.793 H 0 **** 0.053
45019 H 43.7108 96.9752 137.914 H 0 **** 0.053
45020 H 43.5379 95.2966 138.482 H 0 **** 0.053
45021 H 47.0557 94.6128 134.812 H 0 **** 0.053
45022 H 45.9361 94.4368 136.143 H 0 **** 0.053
45023 H 47.68 94.1842 136.43 H 0 **** 0.053
45024 H 45.0916 99.6181 138.319 H 0 **** 0.053
45025 H 46.5066 99.3806 139.386 H 0 **** 0.053
45026 H 45.2136 98.1844 139.328 H 0 **** 0.053
45027 H 49.6381 97.0133 134.046 H 0 **** 0.053
45028 H 48.1111 96.3816 133.381 H 0 **** 0.053
45029 H 49.078 95.4307 134.547 H 0 **** 0.053
45030 H 51.2001 101.617 132.673 H 0 **** 0.053
45031 H 49.7092 100.84 132.063 H 0 **** 0.053
45032 H 50.7639 100.025 133.255 H 0 **** 0.053
45033 H 49.2879 104.687 132.76 H 0 **** 0.053
45034 H 50.1005 103.294 132.087 H 0 **** 0.053
45035 H 50.96 104.306 133.291 H 0 **** 0.053
45036 H 49.501 106.674 135.253 H 0 **** 0.41
45037 H 45.3516 109.946 133.427 H 0 **** 0.053
45038 H 46.9789 109.333 133.068 H 0 **** 0.053
45039 H 46.7307 110.391 134.481 H 0 **** 0.053
45040 H 43.4815 109.913 136.66 H 0 **** 0.053
45041 H 43.5482 109.716 134.893 H 0 **** 0.053
45042 H 44.741 110.761 135.732 H 0 **** 0.053
45043 H 45.6123 108.893 140.867 H 0 **** 0.41
45044 H 46.2657 102.775 140.722 H 0 **** 0.41
45045 H 41.6478 112.801 148.035 H 0 **** 0.053
45046 H 42.7538 114.171 148.029 H 0 **** 0.053
45047 H 42.9783 112.884 149.229 H 0 **** 0.053
45048 H 43.7921 115.037 146.226 H 0 **** 0.053
45049 H 45.5144 114.863 145.859 H 0 **** 0.053
45050 H 44.976 114.828 147.544 H 0 **** 0.053
45051 C 41.7011 191.926 115.532 C.2 0 **** 0
45052 C 41.479 190.868 116.401 C.2 0 **** 0
45053 C 42.3639 189.803 116.435 C.2 0 **** 0
45054 C 43.4631 189.817 115.612 C.2 0 **** 0
45055 C 43.7213 190.899 114.78 C.2 0 **** 0
45056 C 42.8408 191.961 114.749 C.2 0 **** 0
45057 C 44.4365 188.655 115.61 C.3 0 **** -0.106
45058 C 44.0857 187.406 116.406 C.2 0 **** 0
45059 C 42.9923 187.384 117.227 C.2 0 **** 0
45060 C 42.1158 188.625 117.374 C.3 0 **** -0.106
45061 C 42.679 186.213 117.925 C.2 0 **** 0
45062 C 43.4099 185.056 117.746 C.2 0 **** 0
45063 C 44.5777 185.107 116.994 C.2 0 **** 0
45064 C 44.9156 186.276 116.302 C.2 0 **** 0
45065 C 46.05 186.311 115.505 C.2 0 **** -0.1268
45066 C 46.8349 185.213 115.221 C.2 0 **** 0
45067 C 46.3715 183.993 115.83 C.2 0 **** 0
45068 C 45.4253 184.012 116.858 C.2 0 **** 0.042
45069 C 47.1001 182.668 115.531 C.3 0 **** 0
45070 C 48.3321 182.704 114.623 C.3 0 **** 0
45071 C 48.8751 184.086 114.207 C.2 0 **** 0
45072 C 48.1216 185.276 114.474 C.2 0 **** 0
45073 C 48.5301 181.437 113.765 C.3 0 **** -0.106
45074 C 47.2286 180.994 113.089 C.3 0 **** -0.053
45075 C 46.1242 180.649 114.134 C.3 0 **** -0.053
45076 C 46.3545 181.312 115.517 C.3 0 **** -0.106
45077 C 48.7437 186.492 114.125 C.2 0 **** 0.042
45078 C 49.9907 186.507 113.537 C.2 0 **** 0.052
45079 C 50.7002 185.335 113.321 C.2 0 **** 0.052
45080 C 50.1669 184.136 113.715 C.2 0 **** 0.042
45081 C 52.0685 185.323 112.691 C.2 0 **** 0.367
45082 C 52.6319 186.649 112.302 C.2 0 **** 0
45083 C 51.96 187.785 112.521 C.2 0 **** 0
45084 C 50.612 187.821 113.138 C.2 0 **** 0.367
45085 C 52.5327 189.123 112.113 C.3 0 **** -0.106
45086 C 53.3326 188.95 110.798 C.3 0 **** -0.106
45087 C 54.3621 187.827 110.927 C.2 0 **** 0
45088 C 54.0098 186.674 111.664 C.2 0 **** 0.2405
45089 N 54.8525 185.628 111.802 N.2 0 **** -0.481
45090 C 56.0062 185.664 111.143 C.2 0 **** 0.2405
45091 C 56.4281 186.8 110.414 C.2 0 **** 0
45092 C 55.5942 187.886 110.325 C.2 0 **** 0
45093 C 55.9878 189.128 109.534 C.3 0 **** -0.106
45094 C 57.4877 189.182 109.219 C.3 0 **** -0.106
45095 C 57.9772 187.828 108.717 C.3 0 **** -0.106
45096 C 57.8187 186.775 109.83 C.3 0 **** -0.053
45097 C 58.1477 185.35 109.311 C.3 0 **** -0.106
45098 C 57.8868 184.339 110.396 C.2 0 **** 0
45099 C 56.8121 184.505 111.272 C.2 0 **** 0
45100 C 56.5608 183.523 112.247 C.2 0 **** -0.1268
45101 C 57.3606 182.398 112.307 C.2 0 **** -0.1268
45102 C 58.4013 182.207 111.415 C.2 0 **** 0
45103 C 58.6503 183.177 110.445 C.2 0 **** 0
45104 C 43.1322 193.165 113.891 C.3 0 **** -0.106
45105 C 42.6501 192.944 112.441 C.3 0 **** -0.159
45106 C 40.6897 193.04 115.452 C.3 0 **** -0.159
45107 C 44.9619 190.848 113.918 C.3 0 **** -0.159
45108 C 40.2711 190.869 117.306 C.3 0 **** -0.159
45109 C 41.4665 186.25 118.856 C.3 0 **** -0.159
45110 C 42.8715 183.797 118.384 C.3 0 **** -0.159
45111 O 45.2969 182.911 117.658 O.3 0 **** -0.452
45112 C 45.9936 179.152 114.422 C.3 0 **** -0.159
45113 C 47.5649 179.838 112.139 C.3 0 **** -0.159
45114 O 50.8542 182.955 113.637 O.3 0 **** -0.452
45115 O 48.1267 187.673 114.377 O.3 0 **** -0.452
45116 O 50.0459 188.851 113.316 O.2 0 **** -0.419
45117 O 52.6405 184.293 112.481 O.2 0 **** -0.419
45118 C 59.7635 182.952 109.435 C.3 0 **** -0.159
45119 C 59.2152 180.933 111.523 C.3 0 **** -0.159
45120 H 44.5725 188.343 114.549 H 0 **** 0.053
45121 H 45.4293 189.029 115.961 H 0 **** 0.053
45122 H 42.2087 188.998 118.423 H 0 **** 0.053
45123 H 41.0573 188.308 117.247 H 0 **** 0.053
45124 H 46.259 187.263 115.071 H 0 **** 0.1268
45125 H 49.2865 181.591 112.993 H 0 **** 0.053
45126 H 48.8889 180.661 114.445 H 0 **** 0.053
45127 H 46.8645 181.837 112.475 H 0 **** 0.053
45128 H 45.169 181.011 113.731 H 0 **** 0.053
45129 H 46.993 180.662 116.122 H 0 **** 0.053
45130 H 45.3852 181.385 116.025 H 0 **** 0.053
45131 H 51.7537 189.893 111.965 H 0 **** 0.053
45132 H 53.1886 189.487 112.923 H 0 **** 0.053
45133 H 53.7795 189.929 110.555 H 0 **** 0.053
45134 H 52.6196 188.731 109.975 H 0 **** 0.053
45135 H 55.4222 189.15 108.583 H 0 **** 0.053
45136 H 55.726 190.054 110.078 H 0 **** 0.053
45137 H 58.052 189.452 110.132 H 0 **** 0.053
45138 H 57.6987 189.975 108.478 H 0 **** 0.053
45139 H 59.0349 187.878 108.395 H 0 **** 0.053
45140 H 57.3887 187.523 107.832 H 0 **** 0.053
45141 H 58.5521 187.025 110.635 H 0 **** 0.053
45142 H 57.5113 185.131 108.424 H 0 **** 0.053
45143 H 59.1995 185.343 108.951 H 0 **** 0.053
45144 H 55.7324 183.635 112.958 H 0 **** 0.1268
45145 H 57.1551 181.631 113.071 H 0 **** 0.1268
45146 H 44.21 193.419 113.88 H 0 **** 0.053
45147 H 42.6609 194.082 114.286 H 0 **** 0.053
45148 H 41.5671 192.74 112.41 H 0 **** 0.053
45149 H 43.1685 192.093 111.97 H 0 **** 0.053
45150 H 42.8361 193.835 111.808 H 0 **** 0.053
45151 H 39.6581 192.701 115.672 H 0 **** 0.053
45152 H 40.6215 193.486 114.442 H 0 **** 0.053
45153 H 40.9215 193.865 116.161 H 0 **** 0.053
45154 H 44.931 189.991 113.208 H 0 **** 0.053
45155 H 45.8842 190.731 114.527 H 0 **** 0.053
45156 H 45.1298 191.735 113.29 H 0 **** 0.053
45157 H 40.4036 190.26 118.221 H 0 **** 0.053
45158 H 39.3698 190.474 116.786 H 0 **** 0.053
45159 H 40.0218 191.881 117.677 H 0 **** 0.053
45160 H 41.5846 185.589 119.732 H 0 **** 0.053
45161 H 40.5302 185.951 118.331 H 0 **** 0.053
45162 H 41.2801 187.255 119.299 H 0 **** 0.053
45163 H 42.9536 182.918 117.707 H 0 **** 0.053
45164 H 41.7737 183.822 118.623 H 0 **** 0.053
45165 H 43.3906 183.529 119.34 H 0 **** 0.053
45166 H 46.1003 182.386 117.611 H 0 **** 0.41
45167 H 45.681 178.592 113.53 H 0 **** 0.053
45168 H 45.2328 178.974 115.205 H 0 **** 0.053
45169 H 46.9489 178.728 114.789 H 0 **** 0.053
45170 H 48.2955 180.161 111.374 H 0 **** 0.053
45171 H 46.669 179.48 111.61 H 0 **** 0.053
45172 H 48.0203 178.985 112.681 H 0 **** 0.053
45173 H 51.6774 183.115 113.151 H 0 **** 0.41
45174 H 48.6636 188.407 114.041 H 0 **** 0.41
45175 H 59.4104 183.114 108.4 H 0 **** 0.053
45176 H 60.1733 181.924 109.449 H 0 **** 0.053
45177 H 60.6216 183.633 109.61 H 0 **** 0.053
45178 H 59.1251 180.308 110.615 H 0 **** 0.053
45179 H 58.8906 180.302 112.369 H 0 **** 0.053
45180 H 60.2874 181.142 111.681 H 0 **** 0.053
45181 C 90.7504 154.817 144.447 C.2 0 **** 0
45182 C 91.7659 154.118 143.813 C.2 0 **** 0
45183 C 91.8934 152.752 144.01 C.2 0 **** 0
45184 C 90.9968 152.104 144.823 C.2 0 **** 0
45185 C 89.9436 152.789 145.417 C.2 0 **** 0
45186 C 89.8166 154.148 145.219 C.2 0 **** 0
45187 C 91.1239 150.615 145.076 C.3 0 **** -0.106
45188 C 92.3536 149.887 144.551 C.2 0 **** 0
45189 C 93.2515 150.525 143.741 C.2 0 **** 0
45190 C 93.0206 151.978 143.331 C.3 0 **** -0.106
45191 C 94.3861 149.84 143.295 C.2 0 **** 0
45192 C 94.6561 148.553 143.718 C.2 0 **** 0
45193 C 93.6952 147.871 144.456 C.2 0 **** 0
45194 C 92.545 148.538 144.895 C.2 0 **** 0
45195 C 91.6132 147.875 145.679 C.2 0 **** -0.1268
45196 C 91.7894 146.607 146.192 C.2 0 **** 0
45197 C 93.0511 146.008 145.842 C.2 0 **** 0
45198 C 93.846 146.537 144.823 C.2 0 **** 0.042
45199 C 93.4233 144.626 146.417 C.3 0 **** 0
45200 C 92.4062 143.912 147.31 C.3 0 **** 0
45201 C 91.002 144.536 147.438 C.2 0 **** 0
45202 C 90.7374 145.847 146.924 C.2 0 **** 0
45203 C 93.0322 143.033 148.414 C.3 0 **** -0.106
45204 C 94.1614 143.759 149.152 C.3 0 **** -0.053
45205 C 95.324 144.15 148.19 C.3 0 **** -0.053
45206 C 94.8919 144.23 146.702 C.3 0 **** -0.106
45207 C 89.403 146.291 147.02 C.2 0 **** 0.042
45208 C 88.435 145.503 147.606 C.2 0 **** 0.052
45209 C 88.7248 144.228 148.067 C.2 0 **** 0.052
45210 C 89.9911 143.726 147.923 C.2 0 **** 0.042
45211 C 87.6845 143.341 148.7 C.2 0 **** 0.367
45212 C 86.3086 143.908 148.814 C.2 0 **** 0
45213 C 86.0177 145.132 148.357 C.2 0 **** 0
45214 C 87.0253 146.022 147.732 C.2 0 **** 0.367
45215 C 84.6244 145.704 148.486 C.3 0 **** -0.106
45216 C 84 145.215 149.817 C.3 0 **** -0.106
45217 C 84.0792 143.693 149.933 C.2 0 **** 0
45218 C 85.2349 143.041 149.446 C.2 0 **** 0.2405
45219 N 85.3924 141.703 149.535 N.2 0 **** -0.481
45220 C 84.4648 141.007 150.185 C.2 0 **** 0.2405
45221 C 83.2733 141.596 150.668 C.2 0 **** 0
45222 C 83.0883 142.948 150.523 C.2 0 **** 0
45223 C 81.8348 143.639 151.045 C.3 0 **** -0.106
45224 C 80.6996 142.657 151.358 C.3 0 **** -0.106
45225 C 81.2315 141.456 152.133 C.3 0 **** -0.106
45226 C 82.2331 140.677 151.259 C.3 0 **** -0.053
45227 C 82.9244 139.546 152.064 C.3 0 **** -0.106
45228 C 83.9643 138.874 151.208 C.2 0 **** 0
45229 C 84.726 139.619 150.306 C.2 0 **** 0
45230 C 85.7242 138.976 149.552 C.2 0 **** -0.1268
45231 C 85.9563 137.627 149.734 C.2 0 **** -0.1268
45232 C 85.2344 136.89 150.656 C.2 0 **** 0
45233 C 84.2464 137.526 151.408 C.2 0 **** 0
45234 C 88.6513 154.897 145.814 C.3 0 **** -0.106
45235 C 88.9414 155.309 147.272 C.3 0 **** -0.159
45236 C 90.6721 156.313 144.285 C.3 0 **** -0.159
45237 C 88.9881 152.002 146.284 C.3 0 **** -0.159
45238 C 92.7398 154.841 142.915 C.3 0 **** -0.159
45239 C 95.3418 150.586 142.364 C.3 0 **** -0.159
45240 C 96.0021 147.976 143.348 C.3 0 **** -0.159
45241 O 94.8158 145.753 144.265 O.3 0 **** -0.452
45242 C 96.5014 143.173 148.215 C.3 0 **** -0.159
45243 C 94.5997 142.872 150.323 C.3 0 **** -0.159
45244 O 90.3218 142.438 148.249 O.3 0 **** -0.452
45245 O 89.046 147.501 146.522 O.3 0 **** -0.452
45246 O 86.7287 147.104 147.338 O.2 0 **** -0.419
45247 O 87.9726 142.259 149.123 O.2 0 **** -0.419
45248 C 83.4812 136.733 152.454 C.3 0 **** -0.159
45249 C 85.5681 135.421 150.823 C.3 0 **** -0.159
45250 H 91.098 150.466 146.18 H 0 **** 0.053
45251 H 90.2148 150.111 144.665 H 0 **** 0.053
45252 H 92.8419 152.008 142.229 H 0 **** 0.053
45253 H 93.9677 152.534 143.51 H 0 **** 0.053
45254 H 90.7413 148.445 145.91 H 0 **** 0.1268
45255 H 92.2855 142.718 149.144 H 0 **** 0.053
45256 H 93.4168 142.142 147.911 H 0 **** 0.053
45257 H 93.7428 144.689 149.576 H 0 **** 0.053
45258 H 95.6857 145.139 148.499 H 0 **** 0.053
45259 H 94.9817 143.237 146.251 H 0 **** 0.053
45260 H 95.5925 144.892 146.18 H 0 **** 0.053
45261 H 84.6129 146.809 148.465 H 0 **** 0.053
45262 H 84.0226 145.363 147.626 H 0 **** 0.053
45263 H 82.9685 145.606 149.858 H 0 **** 0.053
45264 H 84.5381 145.699 150.661 H 0 **** 0.053
45265 H 82.0834 144.202 151.965 H 0 **** 0.053
45266 H 81.4481 144.378 150.319 H 0 **** 0.053
45267 H 80.2426 142.301 150.415 H 0 **** 0.053
45268 H 79.8945 143.163 151.922 H 0 **** 0.053
45269 H 80.4092 140.786 152.449 H 0 **** 0.053
45270 H 81.7339 141.801 153.055 H 0 **** 0.053
45271 H 81.6556 140.205 150.428 H 0 **** 0.053
45272 H 83.4002 139.984 152.971 H 0 **** 0.053
45273 H 82.1404 138.847 152.429 H 0 **** 0.053
45274 H 86.3269 139.535 148.825 H 0 **** 0.1268
45275 H 86.7431 137.131 149.143 H 0 **** 0.1268
45276 H 87.7155 154.305 145.783 H 0 **** 0.053
45277 H 88.3965 155.801 145.233 H 0 **** 0.053
45278 H 89.8401 155.945 147.334 H 0 **** 0.053
45279 H 89.1055 154.429 147.915 H 0 **** 0.053
45280 H 88.1005 155.884 147.71 H 0 **** 0.053
45281 H 91.6632 156.782 144.129 H 0 **** 0.053
45282 H 90.2673 156.821 145.181 H 0 **** 0.053
45283 H 90.0317 156.606 143.424 H 0 **** 0.053
45284 H 89.5088 151.544 147.156 H 0 **** 0.053
45285 H 88.5068 151.172 145.723 H 0 **** 0.053
45286 H 88.1629 152.586 146.718 H 0 **** 0.053
45287 H 93.1995 154.19 142.147 H 0 **** 0.053
45288 H 93.5756 155.291 143.496 H 0 **** 0.053
45289 H 92.2591 155.656 142.341 H 0 **** 0.053
45290 H 95.843 149.915 141.645 H 0 **** 0.053
45291 H 96.1344 151.128 142.93 H 0 **** 0.053
45292 H 94.833 151.34 141.722 H 0 **** 0.053
45293 H 96.464 147.418 144.192 H 0 **** 0.053
45294 H 96.7887 148.739 143.096 H 0 **** 0.053
45295 H 95.9585 147.277 142.472 H 0 **** 0.053
45296 H 94.6137 144.828 144.43 H 0 **** 0.41
45297 H 96.9875 143.148 149.2 H 0 **** 0.053
45298 H 97.2695 143.474 147.478 H 0 **** 0.053
45299 H 96.1783 142.146 147.954 H 0 **** 0.053
45300 H 93.7541 142.69 151.013 H 0 **** 0.053
45301 H 95.4049 143.345 150.905 H 0 **** 0.053
45302 H 94.9511 141.88 149.974 H 0 **** 0.053
45303 H 89.5645 142.037 148.702 H 0 **** 0.41
45304 H 88.111 147.674 146.709 H 0 **** 0.41
45305 H 83.4719 137.254 153.43 H 0 **** 0.053
45306 H 83.9121 135.734 152.657 H 0 **** 0.053
45307 H 82.4272 136.564 152.151 H 0 **** 0.053
45308 H 85.9414 135.197 151.839 H 0 **** 0.053
45309 H 86.3545 135.091 150.121 H 0 **** 0.053
45310 H 84.6911 134.777 150.637 H 0 **** 0.053
45311 C 78.0899 135.842 146.443 C.2 0 **** 0
45312 C 77.6734 135.362 145.211 C.2 0 **** 0
45313 C 78.5818 134.746 144.365 C.2 0 **** 0
45314 C 79.8867 134.607 144.769 C.2 0 **** 0
45315 C 80.2983 135.037 146.025 C.2 0 **** 0
45316 C 79.3924 135.647 146.867 C.2 0 **** 0
45317 C 80.9081 133.959 143.856 C.3 0 **** -0.106
45318 C 80.5024 133.62 142.428 C.2 0 **** 0
45319 C 79.2054 133.757 142.018 C.2 0 **** 0
45320 C 78.1354 134.232 142.999 C.3 0 **** -0.106
45321 C 78.8665 133.464 140.693 C.2 0 **** 0
45322 C 79.8305 133.111 139.77 C.2 0 **** 0
45323 C 81.1279 132.873 140.209 C.2 0 **** 0
45324 C 81.4798 133.144 141.537 C.2 0 **** 0
45325 C 82.7872 132.962 141.962 C.2 0 **** -0.1268
45326 C 83.84 132.649 141.127 C.2 0 **** 0
45327 C 83.4668 132.523 139.742 C.2 0 **** 0
45328 C 82.1279 132.408 139.361 C.2 0 **** 0.042
45329 C 84.5547 132.261 138.682 C.3 0 **** 0
45330 C 86.0024 132.095 139.151 C.3 0 **** 0
45331 C 86.26 132.022 140.669 C.2 0 **** 0
45332 C 85.2145 132.327 141.601 C.2 0 **** 0
45333 C 87.0604 132.603 138.148 C.3 0 **** -0.106
45334 C 86.7047 133.984 137.591 C.3 0 **** -0.053
45335 C 85.3469 133.966 136.825 C.3 0 **** -0.053
45336 C 84.4248 132.787 137.232 C.3 0 **** -0.106
45337 C 85.5318 132.152 142.963 C.2 0 **** 0.042
45338 C 86.7893 131.741 143.351 C.2 0 **** 0.052
45339 C 87.766 131.429 142.417 C.2 0 **** 0.052
45340 C 87.4769 131.51 141.081 C.2 0 **** 0.042
45341 C 89.1438 130.966 142.812 C.2 0 **** 0.367
45342 C 89.4144 130.861 144.276 C.2 0 **** 0
45343 C 88.4722 131.145 145.183 C.2 0 **** 0
45344 C 87.1106 131.604 144.818 C.2 0 **** 0.367
45345 C 88.7579 131.047 146.664 C.3 0 **** -0.106
45346 C 90.224 131.474 146.925 C.3 0 **** -0.106
45347 C 91.1893 130.691 146.035 C.2 0 **** 0
45348 C 90.7933 130.397 144.71 C.2 0 **** 0.2405
45349 N 91.5983 129.732 143.854 N.2 0 **** -0.481
45350 C 92.83 129.436 144.257 C.2 0 **** 0.2405
45351 C 93.2747 129.678 145.578 C.2 0 **** 0
45352 C 92.4325 130.299 146.465 C.2 0 **** 0
45353 C 92.867 130.605 147.893 C.3 0 **** -0.106
45354 C 94.1154 129.821 148.316 C.3 0 **** -0.106
45355 C 95.1736 129.869 147.219 C.3 0 **** -0.106
45356 C 94.6426 129.166 145.955 C.3 0 **** -0.053
45357 C 95.6185 129.337 144.761 C.3 0 **** -0.106
45358 C 95.0211 128.723 143.523 C.2 0 **** 0
45359 C 93.6477 128.805 143.286 C.2 0 **** 0
45360 C 93.1198 128.265 142.099 C.2 0 **** -0.1268
45361 C 93.9684 127.689 141.174 C.2 0 **** -0.1268
45362 C 95.3356 127.642 141.382 C.2 0 **** 0
45363 C 95.8616 128.18 142.557 C.2 0 **** 0
45364 C 79.8095 136.072 148.252 C.3 0 **** -0.106
45365 C 80.4705 137.467 148.232 C.3 0 **** -0.159
45366 C 77.108 136.577 147.318 C.3 0 **** -0.159
45367 C 81.7473 134.831 146.402 C.3 0 **** -0.159
45368 C 76.2342 135.514 144.783 C.3 0 **** -0.159
45369 C 77.3971 133.6 140.294 C.3 0 **** -0.159
45370 C 79.3977 133.016 138.326 C.3 0 **** -0.159
45371 O 81.8345 131.915 138.12 O.3 0 **** -0.452
45372 C 85.4966 133.854 135.307 C.3 0 **** -0.159
45373 C 87.8876 134.465 136.742 C.3 0 **** -0.159
45374 O 88.3511 131.111 140.106 O.3 0 **** -0.452
45375 O 84.5942 132.374 143.919 O.3 0 **** -0.452
45376 O 86.3002 131.847 145.653 O.2 0 **** -0.419
45377 O 89.9783 130.741 141.985 O.2 0 **** -0.419
45378 C 97.3658 128.171 142.771 C.3 0 **** -0.159
45379 C 96.2055 127.022 140.307 C.3 0 **** -0.159
45380 H 81.7803 134.65 143.797 H 0 **** 0.053
45381 H 81.2753 133.025 144.348 H 0 **** 0.053
45382 H 77.4157 133.395 143.165 H 0 **** 0.053
45383 H 77.5605 135.045 142.503 H 0 **** 0.053
45384 H 82.943 133.133 143.003 H 0 **** 0.1268
45385 H 88.0501 132.657 138.605 H 0 **** 0.053
45386 H 87.0955 131.865 137.343 H 0 **** 0.053
45387 H 86.6037 134.676 138.447 H 0 **** 0.053
45388 H 84.8286 134.906 137.057 H 0 **** 0.053
45389 H 84.6704 131.915 136.62 H 0 **** 0.053
45390 H 83.3904 133.069 137.002 H 0 **** 0.053
45391 H 88.0835 131.677 147.272 H 0 **** 0.053
45392 H 88.5933 130.004 146.986 H 0 **** 0.053
45393 H 90.417 131.343 148.003 H 0 **** 0.053
45394 H 90.3158 132.565 146.733 H 0 **** 0.053
45395 H 93.0769 131.687 147.988 H 0 **** 0.053
45396 H 92.0654 130.375 148.618 H 0 **** 0.053
45397 H 93.8464 128.765 148.508 H 0 **** 0.053
45398 H 94.5175 130.217 149.267 H 0 **** 0.053
45399 H 96.1153 129.39 147.548 H 0 **** 0.053
45400 H 95.4171 130.921 146.983 H 0 **** 0.053
45401 H 94.5685 128.075 146.185 H 0 **** 0.053
45402 H 95.8058 130.423 144.598 H 0 **** 0.053
45403 H 96.5967 128.89 145.043 H 0 **** 0.053
45404 H 92.0425 128.303 141.895 H 0 **** 0.1268
45405 H 93.5486 127.272 140.244 H 0 **** 0.1268
45406 H 80.5052 135.348 148.719 H 0 **** 0.053
45407 H 78.9583 136.093 148.956 H 0 **** 0.053
45408 H 79.784 138.225 147.82 H 0 **** 0.053
45409 H 81.3856 137.469 147.617 H 0 **** 0.053
45410 H 80.7577 137.799 149.25 H 0 **** 0.053
45411 H 76.3338 137.116 146.739 H 0 **** 0.053
45412 H 77.5859 137.363 147.933 H 0 **** 0.053
45413 H 76.5771 135.892 148.016 H 0 **** 0.053
45414 H 82.4301 135.381 145.717 H 0 **** 0.053
45415 H 82.0383 133.759 146.359 H 0 **** 0.053
45416 H 82.0188 135.173 147.412 H 0 **** 0.053
45417 H 75.9097 134.755 144.044 H 0 **** 0.053
45418 H 76.0461 136.509 144.323 H 0 **** 0.053
45419 H 75.5279 135.401 145.628 H 0 **** 0.053
45420 H 77.1027 132.881 139.509 H 0 **** 0.053
45421 H 77.1604 134.623 139.92 H 0 **** 0.053
45422 H 76.691 133.392 141.13 H 0 **** 0.053
45423 H 80.1451 133.466 137.635 H 0 **** 0.053
45424 H 78.4594 133.583 138.077 H 0 **** 0.053
45425 H 79.2221 131.963 137.985 H 0 **** 0.053
45426 H 82.5827 131.41 137.791 H 0 **** 0.41
45427 H 86.0128 134.727 134.884 H 0 **** 0.053
45428 H 84.5029 133.794 134.824 H 0 **** 0.053
45429 H 86.0553 132.941 135.023 H 0 **** 0.053
45430 H 88.8064 134.531 137.355 H 0 **** 0.053
45431 H 87.6993 135.464 136.321 H 0 **** 0.053
45432 H 88.1029 133.765 135.91 H 0 **** 0.053
45433 H 89.2013 130.91 140.525 H 0 **** 0.41
45434 H 84.982 132.256 144.799 H 0 **** 0.41
45435 H 97.7398 129.171 143.06 H 0 **** 0.053
45436 H 97.9412 127.89 141.868 H 0 **** 0.053
45437 H 97.6633 127.456 143.566 H 0 **** 0.053
45438 H 96.9072 127.756 139.871 H 0 **** 0.053
45439 H 95.609 126.624 139.468 H 0 **** 0.053
45440 H 96.8019 126.178 140.696 H 0 **** 0.053
45441 C1 72.3995 153.379 144.015 C.ar 0 **** 0.042
45442 C2 71.0812 153.452 143.605 C.ar 0 **** -0.1268
45443 C3 70.17 154.238 144.29 C.ar 0 **** 0
45444 C4 70.5569 154.975 145.411 C.ar 0 **** 0
45445 C5 71.8952 154.905 145.809 C.ar 0 **** -0.1268
45446 C6 72.8123 154.111 145.137 C.ar 0 **** 0
45447 C7 69.3777 155.678 145.893 C.ar 0 **** 0
45448 C8 68.3259 155.361 145.051 C.ar 0 **** 0
45449 C9 68.7192 154.421 143.963 C.3 0 **** -0.106
45450 C10 67.0686 155.913 145.27 C.ar 0 **** 0
45451 C11 66.8489 156.8 146.344 C.ar 0 **** 0
45452 C12 67.9636 157.082 147.181 C.ar 0 **** 0
45453 C13 69.2256 156.516 146.969 C.ar 0 **** 0
45454 C14 70.372 156.849 147.882 C.3 0 **** -0.106
45455 C15 69.8775 157.117 149.303 C.3 0 **** -0.106
45456 C16 68.9442 158.296 149.247 C.3 0 **** -0.106
45457 C17 67.7481 158.033 148.357 C.ar 0 **** 0
45458 C18 66.5558 158.636 148.598 C.ar 0 **** 0
45459 C19 65.4808 158.402 147.787 C.ar 0 **** 0
45460 C20 65.5578 157.39 146.577 C.ar 0 **** 0
45461 C21 64.4812 156.975 145.695 C.ar 0 **** 0
45462 C22 64.8021 156.117 144.639 C.ar 0 **** 0
45463 C23 66.0263 155.589 144.416 C.ar 0 **** 0.042
45464 C24 64.1702 159.125 148.062 C.3 0 **** -0.106
45465 C25 64.2172 160.278 149.106 C.ar 0 **** 0
45466 C26 65.318 160.444 149.91 C.ar 0 **** 0
45467 C27 66.524 159.569 149.805 C.3 0 **** -0.106
45468 C28 65.3389 161.443 150.882 C.ar 0 **** 0.042
45469 C29 64.2635 162.29 151.088 C.ar 0 **** 0
45470 C30 63.166 162.114 150.259 C.ar 0 **** 0
45471 C31 63.1265 161.126 149.279 C.ar 0 **** 0
45472 C32 61.9146 162.998 150.386 C.ar 0 **** 0
45473 C33 62.0079 164.061 151.486 C.3 0 **** -0.106
45474 C34 62.8782 163.617 152.66 C.3 0 **** -0.106
45475 C35 64.2936 163.369 152.143 C.3 0 **** -0.106
45476 C36 61.8769 161.022 148.428 C.ar 0 **** -0.1268
45477 C37 60.8332 161.866 148.642 C.ar 0 **** 0.0265
45478 C38 60.8368 162.821 149.582 C.ar 0 **** -0.1268
45479 C39 63.6993 155.743 143.719 C.3 0 **** -0.106
45480 C40 62.6026 156.478 144.419 C.ar 0 **** 0
45481 C41 63.0415 157.182 145.541 C.ar 0 **** 0
45482 C42 62.035 157.854 146.265 C.ar 0 **** -0.1268
45483 C43 60.687 157.849 145.85 C.ar 0 **** 0
45484 C44 60.2852 157.141 144.698 C.ar 0 **** 0
45485 C45 61.2684 156.438 143.983 C.ar 0 **** 0
45486 C46 60.8818 155.696 142.846 C.ar 0 **** -0.1268
45487 C47 59.569 155.638 142.404 C.ar 0 **** 0
45488 C48 58.6158 156.335 143.124 C.ar 0 **** -0.1268
45489 C49 58.9381 157.088 144.265 C.ar 0 **** 0
45490 C50 57.968 157.788 145.004 C.ar 0 **** 0.042
45491 C51 58.3301 158.497 146.132 C.ar 0 **** -0.1268
45492 C52 59.6553 158.525 146.558 C.ar 0 **** -0.1268
45493 O53 73.3077 152.602 143.336 O.3 0 **** -0.452
45494 C54 74.2625 154.057 145.592 C.3 0 **** -0.159
45495 O55 66.2155 154.758 143.377 O.3 0 **** -0.452
45496 C56 59.298 154.79 141.166 C.3 0 **** -0.106
45497 C57 57.8616 154.929 140.649 C.3 0 **** -0.159
45498 O58 59.7439 161.731 147.868 O.3 0 **** -0.4365
45499 O59 66.4226 161.641 151.694 O.3 0 **** -0.452
45500 O60 56.6567 157.822 144.696 O.3 0 **** -0.452
45501 H61 70.7152 152.888 142.716 H 0 **** 0.1268
45502 H62 72.3076 155.468 146.657 H 0 **** 0.1268
45503 H63 68.1942 153.45 144.008 H 0 **** 0.053
45504 H64 68.6127 154.849 142.949 H 0 **** 0.053
45505 H65 71.0838 156.031 147.947 H 0 **** 0.053
45506 H66 70.9119 157.752 147.519 H 0 **** 0.053
45507 H67 69.3744 156.21 149.719 H 0 **** 0.053
45508 H68 70.7499 157.33 149.989 H 0 **** 0.053
45509 H69 68.6293 158.532 150.271 H 0 **** 0.053
45510 H70 69.5024 159.173 148.875 H 0 **** 0.053
45511 H71 63.8075 159.555 147.105 H 0 **** 0.053
45512 H72 67.4035 160.217 149.732 H 0 **** 0.053
45513 H73 62.4274 164.989 151.047 H 0 **** 0.053
45514 H74 60.9841 164.295 151.809 H 0 **** 0.053
45515 H75 62.8862 164.394 153.434 H 0 **** 0.053
45516 H76 62.467 162.707 153.12 H 0 **** 0.053
45517 H77 64.7027 164.289 151.704 H 0 **** 0.053
45518 H78 64.9487 163.081 152.958 H 0 **** 0.053
45519 H79 61.8582 160.277 147.656 H 0 **** 0.1268
45520 H80 59.9963 163.482 149.725 H 0 **** 0.1268
45521 H81 63.8383 156.124 142.695 H 0 **** 0.053
45522 H82 63.4953 154.66 143.7 H 0 **** 0.053
45523 H83 62.19 158.396 147.187 H 0 **** 0.1268
45524 H84 61.6459 155.137 142.275 H 0 **** 0.1268
45525 H85 57.5845 156.287 142.784 H 0 **** 0.1268
45526 H86 57.5859 159.048 146.731 H 0 **** 0.1268
45527 H87 59.933 159.075 147.501 H 0 **** 0.1268
45528 H88 72.8558 152.183 142.616 H 0 **** 0.41
45529 H89 74.6943 153.067 145.407 H 0 **** 0.053
45530 H90 74.3625 154.254 146.669 H 0 **** 0.053
45531 H91 74.8677 154.797 145.045 H 0 **** 0.053
45532 H92 65.4069 154.637 142.899 H 0 **** 0.41
45533 H93 59.9848 155.082 140.364 H 0 **** 0.053
45534 H94 57.6986 154.311 139.744 H 0 **** 0.053
45535 H95 57.6244 155.975 140.375 H 0 **** 0.053
45536 H96 57.1224 154.595 141.401 H 0 **** 0.053
45537 H97 59.8852 161.094 147.186 H 0 **** 0.41
45538 H98 67.0979 161.013 151.493 H 0 **** 0.41
45539 H99 56.5025 157.304 143.916 H 0 **** 0.41
45540 H100 63.4768 158.366 148.479 H 0 **** 0.053
45541 H101 66.6046 158.952 150.707 H 0 **** 0.053
45542 H102 59.4916 153.736 141.393 H 0 **** 0.053
45543 C1 36.8407 180.833 155.458 C.ar 0 **** 0.042
45544 C2 38.1528 180.401 155.41 C.ar 0 **** -0.1268
45545 C3 38.9783 180.524 156.515 C.ar 0 **** 0
45546 C4 38.5091 181.087 157.703 C.ar 0 **** 0
45547 C5 37.1768 181.509 157.745 C.ar 0 **** -0.1268
45548 C6 36.3461 181.402 156.64 C.ar 0 **** 0
45549 C7 39.612 181.074 158.652 C.ar 0 **** 0
45550 C8 40.7008 180.496 158.023 C.ar 0 **** 0
45551 C9 40.4111 180.097 156.616 C.3 0 **** -0.106
45552 C10 41.8993 180.339 158.71 C.ar 0 **** 0
45553 C11 42.0211 180.761 160.05 C.ar 0 **** 0
45554 C12 40.8729 181.355 160.642 C.ar 0 **** 0
45555 C13 39.6709 181.526 159.947 C.ar 0 **** 0
45556 C14 38.4853 182.158 160.62 C.3 0 **** -0.106
45557 C15 38.9316 183.195 161.651 C.3 0 **** -0.106
45558 C16 39.7548 182.481 162.689 C.3 0 **** -0.106
45559 C17 40.9833 181.829 162.091 C.ar 0 **** 0
45560 C18 42.112 181.665 162.828 C.ar 0 **** 0
45561 C19 43.2159 181.068 162.286 C.ar 0 **** 0
45562 C20 43.2496 180.594 160.78 C.ar 0 **** 0
45563 C21 44.3725 180.034 160.049 C.ar 0 **** 0
45564 C22 44.1471 179.615 158.733 C.ar 0 **** 0
45565 C23 42.9796 179.756 158.067 C.ar 0 **** 0.042
45566 C24 44.4512 180.865 163.152 C.3 0 **** -0.106
45567 C25 44.2841 181.128 164.677 C.ar 0 **** 0
45568 C26 43.1606 181.756 165.155 C.ar 0 **** 0
45569 C27 42.0407 182.181 164.262 C.3 0 **** -0.106
45570 C28 43.0338 182.04 166.514 C.ar 0 **** 0.042
45571 C29 44.0247 181.721 167.426 C.ar 0 **** 0
45572 C30 45.1461 181.077 166.926 C.ar 0 **** 0
45573 C31 45.2905 180.779 165.574 C.ar 0 **** 0
45574 C32 46.3101 180.665 167.842 C.ar 0 **** 0
45575 C33 46.1042 181.025 169.317 C.3 0 **** -0.106
45576 C34 45.2597 182.284 169.502 C.3 0 **** -0.106
45577 C35 43.8806 182.033 168.896 C.3 0 **** -0.106
45578 C36 46.5577 180.072 165.136 C.ar 0 **** -0.1268
45579 C37 47.5177 179.762 166.047 C.ar 0 **** 0.0265
45580 C38 47.4126 180.046 167.353 C.ar 0 **** -0.1268
45581 C39 45.2931 179.001 158.019 C.3 0 **** -0.106
45582 C40 46.3078 179.157 159.104 C.ar 0 **** 0
45583 C41 45.7897 179.741 160.262 C.ar 0 **** 0
45584 C42 46.7198 179.954 161.301 C.ar 0 **** -0.1268
45585 C43 48.0688 179.559 161.187 C.ar 0 **** 0
45586 C44 48.5507 178.952 160.007 C.ar 0 **** 0
45587 C45 47.6465 178.763 158.95 C.ar 0 **** 0
45588 C46 48.1159 178.188 157.748 C.ar 0 **** -0.1268
45589 C47 49.4352 177.799 157.573 C.ar 0 **** 0
45590 C48 50.3098 177.998 158.625 C.ar 0 **** -0.1268
45591 C49 49.9034 178.566 159.844 C.ar 0 **** 0
45592 C50 50.794 178.778 160.912 C.ar 0 **** 0.042
45593 C51 50.3522 179.363 162.083 C.ar 0 **** -0.1268
45594 C52 49.0237 179.755 162.223 C.ar 0 **** -0.1268
45595 O53 36.0171 180.712 154.364 O.3 0 **** -0.452
45596 C54 34.9 181.867 156.717 C.3 0 **** -0.159
45597 O55 42.8838 179.334 156.794 O.3 0 **** -0.452
45598 C56 49.8003 177.201 156.218 C.3 0 **** -0.106
45599 C57 51.2257 176.639 156.178 C.3 0 **** -0.159
45600 O58 48.6262 179.141 165.61 O.3 0 **** -0.4365
45601 O59 41.9238 182.657 167.024 O.3 0 **** -0.452
45602 O60 52.1009 178.451 160.888 O.3 0 **** -0.452
45603 H61 38.5814 179.94 154.491 H 0 **** 0.1268
45604 H62 36.702 181.936 158.639 H 0 **** 0.1268
45605 H63 41.0214 180.638 155.87 H 0 **** 0.053
45606 H64 40.4937 179.009 156.439 H 0 **** 0.053
45607 H65 37.8497 182.678 159.909 H 0 **** 0.053
45608 H66 37.8711 181.388 161.136 H 0 **** 0.053
45609 H67 39.5088 184.014 161.156 H 0 **** 0.053
45610 H68 38.0333 183.691 162.124 H 0 **** 0.053
45611 H69 40.0315 183.207 163.463 H 0 **** 0.053
45612 H70 39.1249 181.717 163.177 H 0 **** 0.053
45613 H71 44.7877 179.814 163.029 H 0 **** 0.053
45614 H72 41.1071 181.804 164.692 H 0 **** 0.053
45615 H73 45.6092 180.172 169.824 H 0 **** 0.053
45616 H74 47.0975 181.134 169.774 H 0 **** 0.053
45617 H75 45.1697 182.521 170.57 H 0 **** 0.053
45618 H76 45.7451 183.145 169.021 H 0 **** 0.053
45619 H77 43.3964 181.184 169.398 H 0 **** 0.053
45620 H78 43.2423 182.898 169.037 H 0 **** 0.053
45621 H79 46.6552 179.82 164.097 H 0 **** 0.1268
45622 H80 48.1866 179.786 168.057 H 0 **** 0.1268
45623 H81 45.1357 177.938 157.777 H 0 **** 0.053
45624 H82 45.595 179.558 157.118 H 0 **** 0.053
45625 H83 46.5022 180.446 162.237 H 0 **** 0.1268
45626 H84 47.415 178.033 156.908 H 0 **** 0.1268
45627 H85 51.3464 177.699 158.49 H 0 **** 0.1268
45628 H86 51.0343 179.546 162.929 H 0 **** 0.1268
45629 H87 48.6828 180.266 163.167 H 0 **** 0.1268
45630 H88 36.5134 180.311 153.664 H 0 **** 0.41
45631 H89 34.5625 182.258 155.75 H 0 **** 0.053
45632 H90 34.7659 182.672 157.452 H 0 **** 0.053
45633 H91 34.2382 181.03 156.992 H 0 **** 0.053
45634 H92 43.7063 178.959 156.511 H 0 **** 0.41
45635 H93 49.1024 176.394 155.973 H 0 **** 0.053
45636 H94 51.4577 176.203 155.186 H 0 **** 0.053
45637 H95 51.3719 175.838 156.928 H 0 **** 0.053
45638 H96 51.9804 177.426 156.364 H 0 **** 0.053
45639 H97 48.5498 178.917 164.696 H 0 **** 0.41
45640 H98 41.3137 182.852 166.331 H 0 **** 0.41
45641 H99 52.3155 178.073 160.044 H 0 **** 0.41
45642 H100 45.2043 181.598 162.799 H 0 **** 0.053
45643 H101 42.003 183.276 164.222 H 0 **** 0.053
45644 H102 49.7013 177.965 155.439 H 0 **** 0.053
45645 C1 23.3691 116.142 119.233 C.ar 0 **** 0.042
45646 C2 22.938 114.836 119.092 C.ar 0 **** -0.1268
45647 C3 23.1466 114.145 117.91 C.ar 0 **** 0
45648 C4 23.7945 114.749 116.831 C.ar 0 **** 0
45649 C5 24.2371 116.066 116.987 C.ar 0 **** -0.1268
45650 C6 24.0218 116.77 118.163 C.ar 0 **** 0
45651 C7 23.847 113.768 115.757 C.ar 0 **** 0
45652 C8 23.249 112.608 116.217 C.ar 0 **** 0
45653 C9 22.7456 112.732 117.614 C.3 0 **** -0.106
45654 C10 23.175 111.489 115.394 C.ar 0 **** 0
45655 C11 23.7062 111.52 114.088 C.ar 0 **** 0
45656 C12 24.3003 112.741 113.667 C.ar 0 **** 0
45657 C13 24.363 113.871 114.49 C.ar 0 **** 0
45658 C14 25.004 115.138 113.996 C.3 0 **** -0.106
45659 C15 24.8122 115.294 112.487 C.3 0 **** -0.106
45660 C16 25.4773 114.121 111.819 C.3 0 **** -0.106
45661 C17 24.8746 112.802 112.252 C.ar 0 **** 0
45662 C18 24.8703 111.732 111.417 C.ar 0 **** 0
45663 C19 24.332 110.54 111.815 C.ar 0 **** 0
45664 C20 23.6494 110.368 113.228 C.ar 0 **** 0
45665 C21 22.9606 109.199 113.746 C.ar 0 **** 0
45666 C22 22.4943 109.252 115.064 C.ar 0 **** 0
45667 C23 22.5772 110.334 115.87 C.ar 0 **** 0.042
45668 C24 24.3791 109.349 110.869 C.3 0 **** -0.106
45669 C25 25.2659 109.504 109.598 C.ar 0 **** 0
45670 C26 25.7553 110.735 109.238 C.ar 0 **** 0
45671 C27 25.5016 111.965 110.047 C.3 0 **** -0.106
45672 C28 26.5043 110.883 108.072 C.ar 0 **** 0.042
45673 C29 26.7726 109.817 107.231 C.ar 0 **** 0
45674 C30 26.2808 108.58 107.618 C.ar 0 **** 0
45675 C31 25.5343 108.409 108.781 C.ar 0 **** 0
45676 C32 26.5205 107.32 106.77 C.ar 0 **** 0
45677 C33 27.3364 107.567 105.498 C.3 0 **** -0.106
45678 C34 27.1261 108.968 104.927 C.3 0 **** -0.106
45679 C35 27.5845 109.987 105.969 C.3 0 **** -0.106
45680 C36 25.0456 107.013 109.109 C.ar 0 **** -0.1268
45681 C37 25.3252 105.977 108.275 C.ar 0 **** 0.0265
45682 C38 26.0323 106.111 107.144 C.ar 0 **** -0.1268
45683 C39 21.8364 108.032 115.593 C.3 0 **** -0.106
45684 C40 21.9193 107.209 114.348 C.ar 0 **** 0
45685 C41 22.5595 107.867 113.296 C.ar 0 **** 0
45686 C42 22.6207 107.15 112.082 C.ar 0 **** -0.1268
45687 C43 22.1098 105.841 111.962 C.ar 0 **** 0
45688 C44 21.4869 105.202 113.055 C.ar 0 **** 0
45689 C45 21.3868 105.913 114.261 C.ar 0 **** 0
45690 C46 20.738 105.304 115.357 C.ar 0 **** -0.1268
45691 C47 20.1989 104.028 115.29 C.ar 0 **** 0
45692 C48 20.3052 103.346 114.092 C.ar 0 **** -0.1268
45693 C49 20.9378 103.899 112.966 C.ar 0 **** 0
45694 C50 21.0392 103.21 111.744 C.ar 0 **** 0.042
45695 C51 21.6477 103.806 110.657 C.ar 0 **** -0.1268
45696 C52 22.1664 105.095 110.752 C.ar 0 **** -0.1268
45697 O53 23.1677 116.827 120.407 O.3 0 **** -0.452
45698 C54 24.5162 118.201 118.304 C.3 0 **** -0.159
45699 O55 22.078 110.276 117.117 O.3 0 **** -0.452
45700 C56 19.52 103.502 116.55 C.3 0 **** -0.106
45701 C57 19.1159 102.028 116.44 C.3 0 **** -0.159
45702 O58 24.8659 104.759 108.605 O.3 0 **** -0.4365
45703 O59 27.013 112.094 107.687 O.3 0 **** -0.452
45704 O60 20.5687 101.965 111.533 O.3 0 **** -0.452
45705 H61 22.417 114.301 119.92 H 0 **** 0.1268
45706 H62 24.7813 116.62 116.211 H 0 **** 0.1268
45707 H63 21.6493 112.622 117.7 H 0 **** 0.053
45708 H64 23.2394 112.044 118.325 H 0 **** 0.053
45709 H65 24.5653 116.017 114.459 H 0 **** 0.053
45710 H66 26.0945 115.136 114.215 H 0 **** 0.053
45711 H67 23.7248 115.351 112.236 H 0 **** 0.053
45712 H68 25.2643 116.267 112.132 H 0 **** 0.053
45713 H69 25.395 114.255 110.733 H 0 **** 0.053
45714 H70 26.5544 114.139 112.062 H 0 **** 0.053
45715 H71 24.7582 108.474 111.436 H 0 **** 0.053
45716 H72 26.4634 112.458 110.218 H 0 **** 0.053
45717 H73 28.4106 107.423 105.732 H 0 **** 0.053
45718 H74 27.0615 106.791 104.77 H 0 **** 0.053
45719 H75 27.7019 109.086 104.001 H 0 **** 0.053
45720 H76 26.0683 109.124 104.671 H 0 **** 0.053
45721 H77 28.6472 109.836 106.203 H 0 **** 0.053
45722 H78 27.4778 110.995 105.585 H 0 **** 0.053
45723 H79 24.4914 106.879 110.018 H 0 **** 0.1268
45724 H80 26.244 105.269 106.503 H 0 **** 0.1268
45725 H81 22.3947 107.558 116.415 H 0 **** 0.053
45726 H82 20.7868 108.194 115.886 H 0 **** 0.053
45727 H83 23.0255 107.532 111.156 H 0 **** 0.1268
45728 H84 20.6502 105.854 116.312 H 0 **** 0.1268
45729 H85 19.8777 102.348 114.034 H 0 **** 0.1268
45730 H86 21.7292 103.29 109.687 H 0 **** 0.1268
45731 H87 22.6266 105.586 109.849 H 0 **** 0.1268
45732 H88 22.7 116.253 121 H 0 **** 0.41
45733 H89 23.8433 118.787 118.942 H 0 **** 0.053
45734 H90 24.5659 118.716 117.335 H 0 **** 0.053
45735 H91 25.5183 118.221 118.762 H 0 **** 0.053
45736 H92 21.6992 109.424 117.283 H 0 **** 0.41
45737 H93 20.1951 103.614 117.405 H 0 **** 0.053
45738 H94 18.6357 101.672 117.373 H 0 **** 0.053
45739 H95 19.9911 101.375 116.257 H 0 **** 0.053
45740 H96 18.3874 101.863 115.624 H 0 **** 0.053
45741 H97 24.453 104.769 109.454 H 0 **** 0.41
45742 H98 26.771 112.761 108.309 H 0 **** 0.41
45743 H99 20.1397 101.653 112.32 H 0 **** 0.41
45744 H100 23.3436 109.203 110.499 H 0 **** 0.053
45745 H101 24.844 112.64 109.487 H 0 **** 0.053
45746 H102 18.6254 104.099 116.762 H 0 **** 0.053
45747 C1 0.0921034 111.389 129.625 C.ar 0 **** 0.042
45748 C2 0.336796 111.847 128.344 C.ar 0 **** -0.1268
45749 C3 1.57041 111.649 127.746 C.ar 0 **** 0
45750 C4 2.59675 110.985 128.419 C.ar 0 **** 0
45751 C5 2.33475 110.515 129.71 C.ar 0 **** -0.1268
45752 C6 1.10715 110.719 130.322 C.ar 0 **** 0
45753 C7 3.74549 110.95 127.527 C.ar 0 **** 0
45754 C8 3.38084 111.574 126.347 C.ar 0 **** 0
45755 C9 1.97905 112.079 126.37 C.3 0 **** -0.106
45756 C10 4.29093 111.669 125.3 C.ar 0 **** 0
45757 C11 5.58975 111.133 125.424 C.ar 0 **** 0
45758 C12 5.91102 110.512 126.662 C.ar 0 **** 0
45759 C13 4.99994 110.428 127.72 C.ar 0 **** 0
45760 C14 5.38949 109.757 129.008 C.3 0 **** -0.106
45761 C15 6.88114 109.94 129.289 C.3 0 **** -0.106
45762 C16 7.64003 109.298 128.159 C.3 0 **** -0.106
45763 C17 7.31489 109.931 126.823 C.ar 0 **** 0
45764 C18 8.23366 109.956 125.823 C.ar 0 **** 0
45765 C19 7.93342 110.521 124.616 C.ar 0 **** 0
45766 C20 6.53917 111.212 124.346 C.ar 0 **** 0
45767 C21 6.11736 111.928 123.155 C.ar 0 **** 0
45768 C22 4.80022 112.397 123.112 C.ar 0 **** 0
45769 C23 3.91011 112.294 124.124 C.ar 0 **** 0.042
45770 C24 8.97181 110.497 123.504 C.3 0 **** -0.106
45771 C25 10.2239 109.603 123.741 C.ar 0 **** 0
45772 C26 10.4841 109.085 124.986 C.ar 0 **** 0
45773 C27 9.57906 109.315 126.152 C.3 0 **** -0.106
45774 C28 11.6328 108.329 125.211 C.ar 0 **** 0.042
45775 C29 12.5567 108.082 124.21 C.ar 0 **** 0
45776 C30 12.2713 108.602 122.958 C.ar 0 **** 0
45777 C31 11.127 109.356 122.71 C.ar 0 **** 0
45778 C32 13.2169 108.388 121.765 C.ar 0 **** 0
45779 C33 14.464 107.562 122.095 C.3 0 **** -0.106
45780 C34 14.9206 107.739 123.542 C.3 0 **** -0.106
45781 C35 13.7995 107.262 124.462 C.3 0 **** -0.106
45782 C36 10.9129 109.877 121.304 C.ar 0 **** -0.1268
45783 C37 11.8283 109.62 120.333 C.ar 0 **** 0.0265
45784 C38 12.9433 108.905 120.541 C.ar 0 **** -0.1268
45785 C39 4.37267 113.083 121.868 C.3 0 **** -0.106
45786 C40 5.6792 113.014 121.147 C.ar 0 **** 0
45787 C41 6.67416 112.356 121.872 C.ar 0 **** 0
45788 C42 7.94122 112.307 121.255 C.ar 0 **** -0.1268
45789 C43 8.16719 112.846 119.971 C.ar 0 **** 0
45790 C44 7.13018 113.487 119.26 C.ar 0 **** 0
45791 C45 5.87056 113.575 119.874 C.ar 0 **** 0
45792 C46 4.82801 114.241 119.193 C.ar 0 **** -0.1268
45793 C47 4.99822 114.807 117.939 C.ar 0 **** 0
45794 C48 6.24718 114.712 117.354 C.ar 0 **** -0.1268
45795 C49 7.32417 114.065 117.982 C.ar 0 **** 0
45796 C50 8.5979 113.977 117.392 C.ar 0 **** 0.042
45797 C51 9.63195 113.35 118.059 C.ar 0 **** -0.1268
45798 C52 9.43266 112.802 119.323 C.ar 0 **** -0.1268
45799 O53 -1.13136 111.581 130.222 O.3 0 **** -0.452
45800 C54 0.850827 110.193 131.725 C.3 0 **** -0.159
45801 O55 2.67297 112.799 123.977 O.3 0 **** -0.452
45802 C56 3.78555 115.501 117.329 C.3 0 **** -0.106
45803 C57 4.01439 115.937 115.877 C.3 0 **** -0.159
45804 O58 11.5994 110.11 119.103 O.3 0 **** -0.4365
45805 O59 11.9185 107.794 126.437 O.3 0 **** -0.452
45806 O60 8.91131 114.48 116.182 O.3 0 **** -0.452
45807 H61 -0.445174 112.381 127.756 H 0 **** 0.1268
45808 H62 3.06257 109.954 130.312 H 0 **** 0.1268
45809 H63 1.90423 113.178 126.278 H 0 **** 0.053
45810 H64 1.32504 111.602 125.617 H 0 **** 0.053
45811 H65 4.85782 110.178 129.857 H 0 **** 0.053
45812 H66 5.16874 108.668 128.965 H 0 **** 0.053
45813 H67 7.12869 111.025 129.39 H 0 **** 0.053
45814 H68 7.156 109.465 130.277 H 0 **** 0.053
45815 H69 8.71159 109.374 128.381 H 0 **** 0.053
45816 H70 7.39452 108.222 128.134 H 0 **** 0.053
45817 H71 8.47545 110.138 122.578 H 0 **** 0.053
45818 H72 9.3668 108.343 126.609 H 0 **** 0.053
45819 H73 14.2391 106.492 121.909 H 0 **** 0.053
45820 H74 15.2515 107.85 121.385 H 0 **** 0.053
45821 H75 15.8332 107.157 123.72 H 0 **** 0.053
45822 H76 15.165 108.792 123.74 H 0 **** 0.053
45823 H77 13.5766 106.203 124.27 H 0 **** 0.053
45824 H78 14.101 107.344 125.5 H 0 **** 0.053
45825 H79 10.0175 110.436 121.109 H 0 **** 0.1268
45826 H80 13.6493 108.71 119.75 H 0 **** 0.1268
45827 H81 3.58976 112.538 121.318 H 0 **** 0.053
45828 H82 4.069 114.13 122.029 H 0 **** 0.053
45829 H83 8.8327 111.89 121.7 H 0 **** 0.1268
45830 H84 3.83181 114.319 119.666 H 0 **** 0.1268
45831 H85 6.38612 115.16 116.373 H 0 **** 0.1268
45832 H86 10.64 113.275 117.619 H 0 **** 0.1268
45833 H87 10.2926 112.327 119.874 H 0 **** 0.1268
45834 H88 -1.68558 112.049 129.611 H 0 **** 0.41
45835 H89 0.169147 110.854 132.273 H 0 **** 0.053
45836 H90 1.77582 110.128 132.315 H 0 **** 0.053
45837 H91 0.391389 109.192 131.686 H 0 **** 0.053
45838 H92 2.57586 113.194 123.122 H 0 **** 0.41
45839 H93 2.92386 114.826 117.357 H 0 **** 0.053
45840 H94 3.11365 116.428 115.458 H 0 **** 0.053
45841 H95 4.24793 115.076 115.223 H 0 **** 0.053
45842 H96 4.84224 116.666 115.794 H 0 **** 0.053
45843 H97 10.7472 110.512 119.049 H 0 **** 0.41
45844 H98 11.2445 108.021 127.057 H 0 **** 0.41
45845 H99 8.14619 114.897 115.807 H 0 **** 0.41
45846 H100 9.35347 111.534 123.411 H 0 **** 0.053
45847 H101 10.0844 109.955 126.884 H 0 **** 0.053
45848 H102 3.5277 116.383 117.926 H 0 **** 0.053
45849 C1 29.6128 175.753 164.508 C.ar 0 **** 0.042
45850 C2 30.7558 176.047 165.229 C.ar 0 **** -0.1268
45851 C3 31.2218 175.177 166.201 C.ar 0 **** 0
45852 C4 30.5521 173.984 166.478 C.ar 0 **** 0
45853 C5 29.4072 173.689 165.732 C.ar 0 **** -0.1268
45854 C6 28.9251 174.559 164.765 C.ar 0 **** 0
45855 C7 31.2866 173.314 167.54 C.ar 0 **** 0
45856 C8 32.3757 174.105 167.862 C.ar 0 **** 0
45857 C9 32.44 175.356 167.055 C.3 0 **** -0.106
45858 C10 33.2686 173.694 168.846 C.ar 0 **** 0
45859 C11 33.0796 172.472 169.524 C.ar 0 **** 0
45860 C12 31.9395 171.705 169.157 C.ar 0 **** 0
45861 C13 31.0334 172.125 168.177 C.ar 0 **** 0
45862 C14 29.8451 171.275 167.825 C.3 0 **** -0.106
45863 C15 29.3532 170.494 169.044 C.3 0 **** -0.106
45864 C16 30.4744 169.597 169.493 C.3 0 **** -0.106
45865 C17 31.7093 170.381 169.884 C.ar 0 **** 0
45866 C18 32.5673 169.905 170.822 C.ar 0 **** 0
45867 C19 33.685 170.612 171.166 C.ar 0 **** 0
45868 C20 34.0007 172.025 170.534 C.ar 0 **** 0
45869 C21 35.0917 172.924 170.867 C.ar 0 **** 0
45870 C22 35.2154 174.099 170.119 C.ar 0 **** 0
45871 C23 34.3563 174.495 169.154 C.ar 0 **** 0.042
45872 C24 34.6466 170.032 172.193 C.3 0 **** -0.106
45873 C25 34.4161 168.548 172.601 C.ar 0 **** 0
45874 C26 33.2583 167.9 172.246 C.ar 0 **** 0
45875 C27 32.1919 168.558 171.433 C.3 0 **** -0.106
45876 C28 33.0282 166.588 172.657 C.ar 0 **** 0.042
45877 C29 33.9338 165.894 173.44 C.ar 0 **** 0
45878 C30 35.1017 166.56 173.779 C.ar 0 **** 0
45879 C31 35.3536 167.869 173.375 C.ar 0 **** 0
45880 C32 36.1868 165.892 174.638 C.ar 0 **** 0
45881 C33 35.8535 164.458 175.063 C.3 0 **** -0.106
45882 C34 34.353 164.227 175.228 C.3 0 **** -0.106
45883 C35 33.677 164.473 173.881 C.3 0 **** -0.106
45884 C36 36.663 168.501 173.801 C.ar 0 **** -0.1268
45885 C37 37.5426 167.802 174.566 C.ar 0 **** 0.0265
45886 C38 37.3252 166.546 174.978 C.ar 0 **** -0.1268
45887 C39 36.3639 174.982 170.441 C.3 0 **** -0.106
45888 C40 36.918 174.178 171.573 C.ar 0 **** 0
45889 C41 36.2005 173.006 171.818 C.ar 0 **** 0
45890 C42 36.6551 172.235 172.908 C.ar 0 **** -0.1268
45891 C43 37.7863 172.606 173.664 C.ar 0 **** 0
45892 C44 38.4978 173.79 173.373 C.ar 0 **** 0
45893 C45 38.0395 174.587 172.312 C.ar 0 **** 0
45894 C46 38.7177 175.791 172.025 C.ar 0 **** -0.1268
45895 C47 39.8222 176.216 172.748 C.ar 0 **** 0
45896 C48 40.2552 175.418 173.79 C.ar 0 **** -0.1268
45897 C49 39.6209 174.211 174.126 C.ar 0 **** 0
45898 C50 40.0536 173.403 175.193 C.ar 0 **** 0.042
45899 C51 39.3836 172.235 175.499 C.ar 0 **** -0.1268
45900 C52 38.2694 171.842 174.762 C.ar 0 **** -0.1268
45901 O53 29.1455 176.617 163.546 O.3 0 **** -0.452
45902 C54 27.6787 174.208 163.967 C.3 0 **** -0.159
45903 O55 34.5662 175.656 168.51 O.3 0 **** -0.452
45904 C56 40.448 177.542 172.329 C.3 0 **** -0.106
45905 C57 41.761 177.841 173.062 C.3 0 **** -0.159
45906 O58 38.6869 168.407 174.924 O.3 0 **** -0.4365
45907 O59 31.8889 165.912 172.314 O.3 0 **** -0.452
45908 O60 41.1085 173.688 175.982 O.3 0 **** -0.452
45909 H61 31.3353 176.981 165.049 H 0 **** 0.1268
45910 H62 28.8277 172.763 165.85 H 0 **** 0.1268
45911 H63 32.3477 176.276 167.66 H 0 **** 0.053
45912 H64 33.3406 175.425 166.417 H 0 **** 0.053
45913 H65 29.0088 171.877 167.482 H 0 **** 0.053
45914 H66 30.1054 170.551 167.022 H 0 **** 0.053
45915 H67 29.0329 171.195 169.854 H 0 **** 0.053
45916 H68 28.4371 169.888 168.779 H 0 **** 0.053
45917 H69 30.1115 168.99 170.332 H 0 **** 0.053
45918 H70 30.7186 168.897 168.675 H 0 **** 0.053
45919 H71 35.6757 170.11 171.783 H 0 **** 0.053
45920 H72 31.9422 167.889 170.603 H 0 **** 0.053
45921 H73 36.2509 163.76 174.298 H 0 **** 0.053
45922 H74 36.3981 164.252 175.995 H 0 **** 0.053
45923 H75 34.1671 163.2 175.566 H 0 **** 0.053
45924 H76 33.9443 164.898 175.997 H 0 **** 0.053
45925 H77 34.0777 163.784 173.126 H 0 **** 0.053
45926 H78 32.611 164.288 173.954 H 0 **** 0.053
45927 H79 36.8672 169.501 173.467 H 0 **** 0.1268
45928 H80 38.0446 166.012 175.579 H 0 **** 0.1268
45929 H81 37.0944 175.062 169.621 H 0 **** 0.053
45930 H82 36.061 175.984 170.784 H 0 **** 0.053
45931 H83 36.1825 171.334 173.271 H 0 **** 0.1268
45932 H84 38.3665 176.429 171.193 H 0 **** 0.1268
45933 H85 41.1177 175.75 174.362 H 0 **** 0.1268
45934 H86 39.7009 171.59 176.335 H 0 **** 0.1268
45935 H87 37.7076 170.908 175.045 H 0 **** 0.1268
45936 H88 29.7469 177.346 163.491 H 0 **** 0.41
45937 H89 27.1127 175.11 163.707 H 0 **** 0.053
45938 H90 26.9999 173.555 164.533 H 0 **** 0.053
45939 H91 27.9499 173.698 163.028 H 0 **** 0.053
45940 H92 35.3443 176.081 168.844 H 0 **** 0.41
45941 H93 40.6462 177.531 171.253 H 0 **** 0.053
45942 H94 42.1963 178.804 172.729 H 0 **** 0.053
45943 H95 42.5219 177.059 172.873 H 0 **** 0.053
45944 H96 41.6115 177.919 174.155 H 0 **** 0.053
45945 H97 38.7735 169.25 174.507 H 0 **** 0.41
45946 H98 31.3271 166.463 171.794 H 0 **** 0.41
45947 H99 41.4979 174.507 175.703 H 0 **** 0.41
45948 H100 34.5093 170.626 173.119 H 0 **** 0.053
45949 H101 31.302 168.709 172.055 H 0 **** 0.053
45950 H102 39.7424 178.359 172.522 H 0 **** 0.053
45951 C1 18.0717 167.235 171.889 C.ar 0 **** 0.042
45952 C2 17.1578 167.521 170.891 C.ar 0 **** -0.1268
45953 C3 17.5592 168.146 169.722 C.ar 0 **** 0
45954 C4 18.8929 168.504 169.52 C.ar 0 **** 0
45955 C5 19.8118 168.197 170.528 C.ar 0 **** -0.1268
45956 C6 19.4178 167.583 171.708 C.ar 0 **** 0
45957 C7 18.9762 169.138 168.213 C.ar 0 **** 0
45958 C8 17.707 169.132 167.662 C.ar 0 **** 0
45959 C9 16.6904 168.512 168.558 C.3 0 **** -0.106
45960 C10 17.496 169.666 166.395 C.ar 0 **** 0
45961 C11 18.5658 170.216 165.658 C.ar 0 **** 0
45962 C12 19.8452 170.203 166.279 C.ar 0 **** 0
45963 C13 20.0552 169.677 167.558 C.ar 0 **** 0
45964 C14 21.4294 169.685 168.167 C.3 0 **** -0.106
45965 C15 22.2313 170.896 167.691 C.3 0 **** -0.106
45966 C16 22.3645 170.797 166.196 C.3 0 **** -0.106
45967 C17 21.0182 170.801 165.504 C.ar 0 **** 0
45968 C18 20.8843 171.298 164.247 C.ar 0 **** 0
45969 C19 19.669 171.292 163.622 C.ar 0 **** 0
45970 C20 18.3674 170.761 164.342 C.ar 0 **** 0
45971 C21 17.0044 170.778 163.84 C.ar 0 **** 0
45972 C22 16.0149 170.182 164.629 C.ar 0 **** 0
45973 C23 16.2204 169.651 165.855 C.ar 0 **** 0.042
45974 C24 19.561 171.82 162.199 C.3 0 **** -0.106
45975 C25 20.9007 172.105 161.459 C.ar 0 **** 0
45976 C26 22.0874 172.122 162.15 C.ar 0 **** 0
45977 C27 22.1638 171.838 163.615 C.3 0 **** -0.106
45978 C28 23.28 172.429 161.498 C.ar 0 **** 0.042
45979 C29 23.321 172.74 160.15 C.ar 0 **** 0
45980 C30 22.1152 172.706 159.467 C.ar 0 **** 0
45981 C31 20.913 172.397 160.098 C.ar 0 **** 0
45982 C32 22.0338 173.025 157.965 C.ar 0 **** 0
45983 C33 23.3824 173.368 157.324 C.3 0 **** -0.106
45984 C34 24.344 174.04 158.302 C.3 0 **** -0.106
45985 C35 24.6174 173.072 159.451 C.3 0 **** -0.106
45986 C36 19.6531 172.389 159.256 C.ar 0 **** -0.1268
45987 C37 19.7136 172.691 157.932 C.ar 0 **** 0.0265
45988 C38 20.8531 173.001 157.298 C.ar 0 **** -0.1268
45989 C39 14.6371 170.165 164.079 C.3 0 **** -0.106
45990 C40 14.9207 170.913 162.817 C.ar 0 **** 0
45991 C41 16.2652 171.261 162.674 C.ar 0 **** 0
45992 C42 16.5769 172.011 161.521 C.ar 0 **** -0.1268
45993 C43 15.5997 172.341 160.559 C.ar 0 **** 0
45994 C44 14.2536 171.953 160.729 C.ar 0 **** 0
45995 C45 13.9187 171.235 161.888 C.ar 0 **** 0
45996 C46 12.5713 170.867 162.093 C.ar 0 **** -0.1268
45997 C47 11.5658 171.182 161.192 C.ar 0 **** 0
45998 C48 11.9164 171.892 160.059 C.ar 0 **** -0.1268
45999 C49 13.2388 172.289 159.8 C.ar 0 **** 0
46000 C50 13.595 173.021 158.653 C.ar 0 **** 0.042
46001 C51 14.9052 173.409 158.454 C.ar 0 **** -0.1268
46002 C52 15.8901 173.088 159.384 C.ar 0 **** -0.1268
46003 O53 17.6776 166.615 173.05 O.3 0 **** -0.452
46004 C54 20.4419 167.259 172.785 C.3 0 **** -0.159
46005 O55 15.1883 169.119 166.533 O.3 0 **** -0.452
46006 C56 10.1554 170.726 161.549 C.3 0 **** -0.106
46007 C57 9.1476 170.959 160.418 C.3 0 **** -0.159
46008 O58 18.5692 172.679 157.229 O.3 0 **** -0.4365
46009 O59 24.4806 172.446 162.154 O.3 0 **** -0.452
46010 O60 12.7278 173.399 157.693 O.3 0 **** -0.452
46011 H61 16.0805 167.255 170.995 H 0 **** 0.1268
46012 H62 20.8875 168.408 170.455 H 0 **** 0.1268
46013 H63 15.8998 169.214 168.88 H 0 **** 0.053
46014 H64 16.224 167.603 168.135 H 0 **** 0.053
46015 H65 21.3885 169.744 169.251 H 0 **** 0.053
46016 H66 21.9855 168.762 167.891 H 0 **** 0.053
46017 H67 21.7239 171.841 168.002 H 0 **** 0.053
46018 H68 23.2475 170.908 168.185 H 0 **** 0.053
46019 H69 22.9881 171.631 165.851 H 0 **** 0.053
46020 H70 22.9092 169.868 165.95 H 0 **** 0.053
46021 H71 18.998 171.076 161.597 H 0 **** 0.053
46022 H72 22.9408 171.083 163.77 H 0 **** 0.053
46023 H73 23.8408 172.433 156.942 H 0 **** 0.053
46024 H74 23.1835 174.006 156.452 H 0 **** 0.053
46025 H75 25.2795 174.297 157.79 H 0 **** 0.053
46026 H76 23.9138 174.979 158.679 H 0 **** 0.053
46027 H77 25.066 172.146 159.066 H 0 **** 0.053
46028 H78 25.3226 173.506 160.151 H 0 **** 0.053
46029 H79 18.7315 172.125 159.738 H 0 **** 0.1268
46030 H80 20.8738 173.23 156.244 H 0 **** 0.1268
46031 H81 14.2672 169.151 163.862 H 0 **** 0.053
46032 H82 13.9119 170.712 164.703 H 0 **** 0.053
46033 H83 17.5523 172.411 161.286 H 0 **** 0.1268
46034 H84 12.294 170.302 163.002 H 0 **** 0.1268
46035 H85 11.13 172.146 159.352 H 0 **** 0.1268
46036 H86 15.2065 173.989 157.566 H 0 **** 0.1268
46037 H87 16.9484 173.442 159.231 H 0 **** 0.1268
46038 H88 16.7459 166.449 172.994 H 0 **** 0.41
46039 H89 19.9961 167.334 173.783 H 0 **** 0.053
46040 H90 21.2946 167.952 172.762 H 0 **** 0.053
46041 H91 20.8229 166.233 172.661 H 0 **** 0.053
46042 H92 14.3894 169.19 166.029 H 0 **** 0.41
46043 H93 10.1655 169.658 161.791 H 0 **** 0.053
46044 H94 8.13603 170.608 160.703 H 0 **** 0.053
46045 H95 9.43212 170.415 159.497 H 0 **** 0.053
46046 H96 9.05438 172.032 160.168 H 0 **** 0.053
46047 H97 17.8518 172.358 157.752 H 0 **** 0.41
46048 H98 24.3571 172.241 163.067 H 0 **** 0.41
46049 H99 11.8571 173.098 157.92 H 0 **** 0.41
46050 H100 19.0397 172.797 162.268 H 0 **** 0.053
46051 H101 22.4389 172.755 164.149 H 0 **** 0.053
46052 H102 9.81259 171.258 162.444 H 0 **** 0.053
46053 C1 29.2842 134.915 179.385 C.ar 0 **** 0.042
46054 C2 30.1949 133.879 179.472 C.ar 0 **** -0.1268
46055 C3 30.4843 133.097 178.365 C.ar 0 **** 0
46056 C4 29.8655 133.334 177.137 C.ar 0 **** 0
46057 C5 28.9567 134.394 177.056 C.ar 0 **** -0.1268
46058 C6 28.6507 135.174 178.161 C.ar 0 **** 0
46059 C7 30.3787 132.348 176.198 C.ar 0 **** 0
46060 C8 31.2937 131.56 176.875 C.ar 0 **** 0
46061 C9 31.4472 131.951 178.305 C.3 0 **** -0.106
46062 C10 31.9577 130.536 176.208 C.ar 0 **** 0
46063 C11 31.7122 130.29 174.841 C.ar 0 **** 0
46064 C12 30.756 131.125 174.201 C.ar 0 **** 0
46065 C13 30.0772 132.146 174.875 C.ar 0 **** 0
46066 C14 29.0769 133.002 174.15 C.3 0 **** -0.106
46067 C15 28.3743 132.207 173.049 C.3 0 **** -0.106
46068 C16 29.4247 131.756 172.071 C.3 0 **** -0.106
46069 C17 30.466 130.87 172.722 C.ar 0 **** 0
46070 C18 31.1119 129.914 172.006 C.ar 0 **** 0
46071 C19 32.0565 129.122 172.596 C.ar 0 **** 0
46072 C20 32.4 129.243 174.133 C.ar 0 **** 0
46073 C21 33.3059 128.415 174.909 C.ar 0 **** 0
46074 C22 33.5087 128.756 176.251 C.ar 0 **** 0
46075 C23 32.8722 129.757 176.898 C.ar 0 **** 0.042
46076 C24 32.7901 128.087 171.756 C.3 0 **** -0.106
46077 C25 32.5877 128.172 170.214 C.ar 0 **** 0
46078 C26 31.6022 128.968 169.685 C.ar 0 **** 0
46079 C27 30.7103 129.81 170.537 C.3 0 **** -0.106
46080 C28 31.3861 129.004 168.309 C.ar 0 **** 0.042
46081 C29 32.1322 128.24 167.428 C.ar 0 **** 0
46082 C30 33.1297 127.45 167.98 C.ar 0 **** 0
46083 C31 33.3656 127.404 169.352 C.ar 0 **** 0
46084 C32 34.0295 126.564 167.103 C.ar 0 **** 0
46085 C33 33.721 126.65 165.606 C.3 0 **** -0.106
46086 C34 32.2472 126.932 165.324 C.3 0 **** -0.106
46087 C35 31.8919 128.284 165.938 C.3 0 **** -0.106
46088 C36 34.4824 126.508 169.848 C.ar 0 **** -0.1268
46089 C37 35.2077 125.769 168.967 C.ar 0 **** 0.0265
46090 C38 34.9992 125.785 167.643 C.ar 0 **** -0.1268
46091 C39 34.4741 127.928 177.015 C.3 0 **** -0.106
46092 C40 34.8066 126.96 175.927 C.ar 0 **** 0
46093 C41 34.1474 127.233 174.727 C.ar 0 **** 0
46094 C42 34.3904 126.318 173.682 C.ar 0 **** -0.1268
46095 C43 35.2771 125.231 173.832 C.ar 0 **** 0
46096 C44 35.9414 125 175.055 C.ar 0 **** 0
46097 C45 35.685 125.882 176.117 C.ar 0 **** 0
46098 C46 36.3115 125.649 177.361 C.ar 0 **** -0.1268
46099 C47 37.1722 124.583 177.574 C.ar 0 **** 0
46100 C48 37.4121 123.727 176.515 C.ar 0 **** -0.1268
46101 C49 36.8175 123.906 175.254 C.ar 0 **** 0
46102 C50 37.0473 123.028 174.18 C.ar 0 **** 0.042
46103 C51 36.4188 123.23 172.967 C.ar 0 **** -0.1268
46104 C52 35.5455 124.3 172.791 C.ar 0 **** -0.1268
46105 O53 28.995 135.694 180.48 O.3 0 **** -0.452
46106 C54 27.6598 136.321 178.042 C.3 0 **** -0.159
46107 O55 33.1309 129.98 178.198 O.3 0 **** -0.452
46108 C56 37.7622 124.451 178.974 C.3 0 **** -0.106
46109 C57 38.8194 123.353 179.063 C.3 0 **** -0.159
46110 O58 36.1831 124.985 169.455 O.3 0 **** -0.4365
46111 O59 30.418 129.792 167.748 O.3 0 **** -0.452
46112 O60 37.8586 121.953 174.238 O.3 0 **** -0.452
46113 H61 30.7229 133.646 180.425 H 0 **** 0.1268
46114 H62 28.4402 134.683 176.131 H 0 **** 0.1268
46115 H63 31.1412 131.16 179.013 H 0 **** 0.053
46116 H64 32.4646 132.3 178.561 H 0 **** 0.053
46117 H65 28.3007 133.365 174.817 H 0 **** 0.053
46118 H66 29.5763 133.882 173.687 H 0 **** 0.053
46119 H67 27.8173 131.343 173.487 H 0 **** 0.053
46120 H68 27.5985 132.849 172.536 H 0 **** 0.053
46121 H69 28.9228 131.234 171.247 H 0 **** 0.053
46122 H70 29.9103 132.647 171.636 H 0 **** 0.053
46123 H71 33.8774 128.189 171.956 H 0 **** 0.053
46124 H72 30.718 130.826 170.131 H 0 **** 0.053
46125 H73 34.3416 127.454 165.161 H 0 **** 0.053
46126 H74 34.0462 125.709 165.145 H 0 **** 0.053
46127 H75 32.0686 126.946 164.242 H 0 **** 0.053
46128 H76 31.6159 126.137 165.746 H 0 **** 0.053
46129 H77 32.5139 129.075 165.497 H 0 **** 0.053
46130 H78 30.8573 128.534 165.731 H 0 **** 0.053
46131 H79 34.6809 126.494 170.902 H 0 **** 0.1268
46132 H80 35.5959 125.194 166.966 H 0 **** 0.1268
46133 H81 35.3694 128.486 177.333 H 0 **** 0.053
46134 H82 34.0202 127.411 177.875 H 0 **** 0.053
46135 H83 33.9195 126.346 172.71 H 0 **** 0.1268
46136 H84 36.1198 126.335 178.206 H 0 **** 0.1268
46137 H85 38.0854 122.89 176.677 H 0 **** 0.1268
46138 H86 36.5796 122.553 172.112 H 0 **** 0.1268
46139 H87 35.0096 124.435 171.808 H 0 **** 0.1268
46140 H88 29.5116 135.381 181.21 H 0 **** 0.41
46141 H89 27.1015 136.455 178.976 H 0 **** 0.053
46142 H90 26.9197 136.144 177.249 H 0 **** 0.053
46143 H91 28.1848 137.265 177.824 H 0 **** 0.053
46144 H92 33.7854 129.372 178.513 H 0 **** 0.41
46145 H93 38.2252 125.401 179.266 H 0 **** 0.053
46146 H94 39.267 123.301 180.074 H 0 **** 0.053
46147 H95 39.63 123.551 178.348 H 0 **** 0.053
46148 H96 38.4107 122.354 178.834 H 0 **** 0.053
46149 H97 36.3012 125.124 170.381 H 0 **** 0.41
46150 H98 29.9534 130.264 168.419 H 0 **** 0.41
46151 H99 38.2311 121.892 175.107 H 0 **** 0.41
46152 H100 32.3906 127.098 172.059 H 0 **** 0.053
46153 H101 29.6892 129.413 170.498 H 0 **** 0.053
46154 H102 36.9657 124.238 179.696 H 0 **** 0.053
46155 C1 37.9093 123.3 146.594 C.ar 0 **** 0.042
46156 C2 37.1441 122.346 147.238 C.ar 0 **** -0.1268
46157 C3 37.1972 121.017 146.85 C.ar 0 **** 0
46158 C4 38.0214 120.608 145.801 C.ar 0 **** 0
46159 C5 38.8013 121.578 145.165 C.ar 0 **** -0.1268
46160 C6 38.7458 122.913 145.538 C.ar 0 **** 0
46161 C7 37.8413 119.172 145.646 C.ar 0 **** 0
46162 C8 36.9341 118.756 146.605 C.ar 0 **** 0
46163 C9 36.4362 119.876 147.453 C.3 0 **** -0.106
46164 C10 36.5857 117.413 146.697 C.ar 0 **** 0
46165 C11 37.1495 116.461 145.822 C.ar 0 **** 0
46166 C12 38.0685 116.948 144.853 C.ar 0 **** 0
46167 C13 38.4089 118.301 144.75 C.ar 0 **** 0
46168 C14 39.388 118.763 143.708 C.3 0 **** -0.106
46169 C15 39.2984 117.895 142.452 C.3 0 **** -0.106
46170 C16 39.6404 116.484 142.848 C.3 0 **** -0.106
46171 C17 38.6857 115.937 143.888 C.ar 0 **** 0
46172 C18 38.4179 114.607 143.955 C.ar 0 **** 0
46173 C19 37.5613 114.116 144.899 C.ar 0 **** 0
46174 C20 36.8094 115.067 145.913 C.ar 0 **** 0
46175 C21 35.8098 114.7 146.9 C.ar 0 **** 0
46176 C22 35.3308 115.709 147.744 C.ar 0 **** 0
46177 C23 35.6784 117.012 147.664 C.ar 0 **** 0.042
46178 C24 37.3134 112.617 144.972 C.3 0 **** -0.106
46179 C25 38.2525 111.714 144.119 C.ar 0 **** 0
46180 C26 39.0716 112.267 143.166 C.ar 0 **** 0
46181 C27 39.1355 113.74 142.924 C.3 0 **** -0.106
46182 C28 39.8712 111.455 142.365 C.ar 0 **** 0.042
46183 C29 39.8687 110.075 142.483 C.ar 0 **** 0
46184 C30 39.0446 109.536 143.458 C.ar 0 **** 0
46185 C31 38.2395 110.33 144.271 C.ar 0 **** 0
46186 C32 38.9589 108.019 143.688 C.ar 0 **** 0
46187 C33 39.855 107.193 142.759 C.3 0 **** -0.106
46188 C34 40.0554 107.853 141.396 C.3 0 **** -0.106
46189 C35 40.7392 109.202 141.611 C.3 0 **** -0.106
46190 C36 37.3754 109.637 145.305 C.ar 0 **** -0.1268
46191 C37 37.3887 108.282 145.409 C.ar 0 **** 0.0265
46192 C38 38.1442 107.49 144.635 C.ar 0 **** -0.1268
46193 C39 34.3463 115.306 148.778 C.3 0 **** -0.106
46194 C40 34.2435 113.864 148.402 C.ar 0 **** 0
46195 C41 35.0749 113.513 147.337 C.ar 0 **** 0
46196 C42 34.9791 112.172 146.911 C.ar 0 **** -0.1268
46197 C43 34.1338 111.244 147.553 C.ar 0 **** 0
46198 C44 33.3229 111.632 148.641 C.ar 0 **** 0
46199 C45 33.38 112.971 149.057 C.ar 0 **** 0
46200 C46 32.5519 113.388 150.122 C.ar 0 **** -0.1268
46201 C47 31.6869 112.524 150.777 C.ar 0 **** 0
46202 C48 31.6439 111.21 150.349 C.ar 0 **** -0.1268
46203 C49 32.4414 110.736 149.294 C.ar 0 **** 0
46204 C50 32.391 109.403 148.852 C.ar 0 **** 0.042
46205 C51 33.1769 108.989 147.794 C.ar 0 **** -0.1268
46206 C52 34.0255 109.885 147.148 C.ar 0 **** -0.1268
46207 O53 37.8609 124.619 146.977 O.3 0 **** -0.452
46208 C54 39.6086 123.946 144.829 C.3 0 **** -0.159
46209 O55 35.1394 117.899 148.518 O.3 0 **** -0.452
46210 C56 30.8474 113.117 151.903 C.3 0 **** -0.106
46211 C57 30.0595 112.057 152.681 C.3 0 **** -0.159
46212 O58 36.6018 107.713 146.337 O.3 0 **** -0.4365
46213 O59 40.6996 111.973 141.407 O.3 0 **** -0.452
46214 O60 31.6024 108.453 149.391 O.3 0 **** -0.452
46215 H61 36.4707 122.613 148.085 H 0 **** 0.1268
46216 H62 39.5042 121.356 144.351 H 0 **** 0.1268
46217 H63 35.3495 120.052 147.358 H 0 **** 0.053
46218 H64 36.6988 119.771 148.522 H 0 **** 0.053
46219 H65 39.1908 119.784 143.396 H 0 **** 0.053
46220 H66 40.4285 118.713 144.098 H 0 **** 0.053
46221 H67 38.2777 117.963 142.003 H 0 **** 0.053
46222 H68 40.0115 118.273 141.662 H 0 **** 0.053
46223 H69 39.635 115.864 141.943 H 0 **** 0.053
46224 H70 40.6723 116.466 143.241 H 0 **** 0.053
46225 H71 37.4185 112.302 146.032 H 0 **** 0.053
46226 H72 40.1893 114.036 142.935 H 0 **** 0.053
46227 H73 40.84 107.055 143.249 H 0 **** 0.053
46228 H74 39.4026 106.197 142.661 H 0 **** 0.053
46229 H75 40.6722 107.212 140.755 H 0 **** 0.053
46230 H76 39.0897 107.984 140.887 H 0 **** 0.053
46231 H77 41.7123 109.061 142.102 H 0 **** 0.053
46232 H78 40.9254 109.687 140.659 H 0 **** 0.053
46233 H79 36.7748 110.252 145.947 H 0 **** 0.1268
46234 H80 38.1384 106.417 144.742 H 0 **** 0.1268
46235 H81 34.7254 115.42 149.806 H 0 **** 0.053
46236 H82 33.3719 115.81 148.672 H 0 **** 0.053
46237 H83 35.5046 111.751 146.066 H 0 **** 0.1268
46238 H84 32.586 114.441 150.457 H 0 **** 0.1268
46239 H85 30.9632 110.531 150.856 H 0 **** 0.1268
46240 H86 33.1481 107.951 147.424 H 0 **** 0.1268
46241 H87 34.6337 109.547 146.262 H 0 **** 0.1268
46242 H88 37.2507 124.694 147.698 H 0 **** 0.41
46243 H89 39.1007 124.917 144.786 H 0 **** 0.053
46244 H90 39.8311 123.654 143.794 H 0 **** 0.053
46245 H91 40.5613 124.087 145.364 H 0 **** 0.053
46246 H92 34.5386 117.469 149.11 H 0 **** 0.41
46247 H93 31.498 113.65 152.604 H 0 **** 0.053
46248 H94 29.469 112.516 153.499 H 0 **** 0.053
46249 H95 30.729 111.308 153.146 H 0 **** 0.053
46250 H96 29.3427 111.521 152.032 H 0 **** 0.053
46251 H97 36.181 108.366 146.872 H 0 **** 0.41
46252 H98 40.6396 112.914 141.398 H 0 **** 0.41
46253 H99 31.0886 108.83 150.093 H 0 **** 0.41
46254 H100 36.2908 112.45 144.576 H 0 **** 0.053
46255 H101 38.7071 113.966 141.941 H 0 **** 0.053
46256 H102 30.144 113.849 151.491 H 0 **** 0.053
46257 C1 45.687 128.059 191.888 C.ar 0 **** 0.042
46258 C2 45.3854 127.259 190.802 C.ar 0 **** -0.1268
46259 C3 45.0975 127.82 189.568 C.ar 0 **** 0
46260 C4 45.1029 129.204 189.39 C.ar 0 **** 0
46261 C5 45.4223 130.004 190.491 C.ar 0 **** -0.1268
46262 C6 45.6997 129.452 191.733 C.ar 0 **** 0
46263 C7 44.7583 129.461 188 C.ar 0 **** 0
46264 C8 44.5705 128.237 187.38 C.ar 0 **** 0
46265 C9 44.7605 127.086 188.306 C.3 0 **** -0.106
46266 C10 44.2454 128.184 186.029 C.ar 0 **** 0
46267 C11 44.1049 129.368 185.275 C.ar 0 **** 0
46268 C12 44.3007 130.595 185.966 C.ar 0 **** 0
46269 C13 44.6145 130.649 187.329 C.ar 0 **** 0
46270 C14 44.8134 131.974 188.011 C.3 0 **** -0.106
46271 C15 43.9303 133.051 187.381 C.3 0 **** -0.106
46272 C16 44.333 133.184 185.938 C.3 0 **** -0.106
46273 C17 44.1452 131.891 185.172 C.ar 0 **** 0
46274 C18 43.8704 131.904 183.843 C.ar 0 **** 0
46275 C19 43.7092 130.734 183.154 C.ar 0 **** 0
46276 C20 43.7813 129.33 183.874 C.ar 0 **** 0
46277 C21 43.5407 128.021 183.294 C.ar 0 **** 0
46278 C22 43.7343 126.903 184.113 C.ar 0 **** 0
46279 C23 44.0638 126.952 185.422 C.ar 0 **** 0.042
46280 C24 43.4413 130.783 181.657 C.3 0 **** -0.106
46281 C25 43.6172 132.165 180.963 C.ar 0 **** 0
46282 C26 43.7485 133.308 181.713 C.ar 0 **** 0
46283 C27 43.7673 133.287 183.206 C.3 0 **** -0.106
46284 C28 43.8524 134.551 181.093 C.ar 0 **** 0.042
46285 C29 43.814 134.691 179.716 C.ar 0 **** 0
46286 C30 43.6926 133.525 178.976 C.ar 0 **** 0
46287 C31 43.5921 132.272 179.576 C.ar 0 **** 0
46288 C32 43.6466 133.55 177.44 C.ar 0 **** 0
46289 C33 43.7502 134.954 176.833 C.3 0 **** -0.106
46290 C34 43.151 136.03 177.736 C.3 0 **** -0.106
46291 C35 43.9269 136.042 179.051 C.3 0 **** -0.106
46292 C36 43.4633 131.063 178.672 C.ar 0 **** -0.1268
46293 C37 43.4329 131.219 177.322 C.ar 0 **** 0.0265
46294 C38 43.5181 132.411 176.715 C.ar 0 **** -0.1268
46295 C39 43.5305 125.572 183.49 C.3 0 **** -0.106
46296 C40 43.1159 126.05 182.137 C.ar 0 **** 0
46297 C41 43.1221 127.442 182.018 C.ar 0 **** 0
46298 C42 42.6909 127.945 180.773 C.ar 0 **** -0.1268
46299 C43 42.3272 127.094 179.71 C.ar 0 **** 0
46300 C44 42.3606 125.692 179.86 C.ar 0 **** 0
46301 C45 42.7478 125.172 181.106 C.ar 0 **** 0
46302 C46 42.7489 123.772 181.291 C.ar 0 **** -0.1268
46303 C47 42.3939 122.888 180.285 C.ar 0 **** 0
46304 C48 42.0352 123.419 179.061 C.ar 0 **** -0.1268
46305 C49 41.9933 124.804 178.82 C.ar 0 **** 0
46306 C50 41.5757 125.347 177.591 C.ar 0 **** 0.042
46307 C51 41.534 126.715 177.411 C.ar 0 **** -0.1268
46308 C52 41.8964 127.577 178.443 C.ar 0 **** -0.1268
46309 O53 45.9754 127.508 193.113 O.3 0 **** -0.452
46310 C54 46.0465 130.348 192.912 C.3 0 **** -0.159
46311 O55 44.2072 125.81 186.117 O.3 0 **** -0.452
46312 C56 42.4248 121.403 180.628 C.3 0 **** -0.106
46313 C57 42.1738 120.502 179.413 C.3 0 **** -0.159
46314 O58 43.3104 130.118 176.562 O.3 0 **** -0.4365
46315 O59 43.9915 135.709 181.809 O.3 0 **** -0.452
46316 O60 41.1885 124.614 176.528 O.3 0 **** -0.452
46317 H61 45.3679 126.148 190.884 H 0 **** 0.1268
46318 H62 45.4839 131.1 190.449 H 0 **** 0.1268
46319 H63 43.8469 126.481 188.451 H 0 **** 0.053
46320 H64 45.598 126.423 188.021 H 0 **** 0.053
46321 H65 44.5473 131.927 189.063 H 0 **** 0.053
46322 H66 45.8748 132.298 187.935 H 0 **** 0.053
46323 H67 42.851 132.781 187.487 H 0 **** 0.053
46324 H68 44.0596 134.033 187.925 H 0 **** 0.053
46325 H69 43.7442 133.995 185.492 H 0 **** 0.053
46326 H70 45.3914 133.496 185.892 H 0 **** 0.053
46327 H71 44.132 130.069 181.161 H 0 **** 0.053
46328 H72 44.64 133.858 183.539 H 0 **** 0.053
46329 H73 44.8198 135.182 176.649 H 0 **** 0.053
46330 H74 43.256 134.929 175.852 H 0 **** 0.053
46331 H75 43.2172 137.009 177.246 H 0 **** 0.053
46332 H76 42.0848 135.83 177.915 H 0 **** 0.053
46333 H77 44.9864 136.263 178.863 H 0 **** 0.053
46334 H78 43.5474 136.817 179.707 H 0 **** 0.053
46335 H79 43.4122 130.096 179.135 H 0 **** 0.1268
46336 H80 43.4985 132.505 175.641 H 0 **** 0.1268
46337 H81 44.4536 124.974 183.431 H 0 **** 0.053
46338 H82 42.7251 124.988 183.963 H 0 **** 0.053
46339 H83 42.5786 128.992 180.533 H 0 **** 0.1268
46340 H84 43.0504 123.352 182.267 H 0 **** 0.1268
46341 H85 41.7417 122.728 178.275 H 0 **** 0.1268
46342 H86 41.2112 127.162 176.457 H 0 **** 0.1268
46343 H87 41.8311 128.692 178.295 H 0 **** 0.1268
46344 H88 45.915 126.566 193.039 H 0 **** 0.41
46345 H89 45.6869 129.915 193.852 H 0 **** 0.053
46346 H90 45.587 131.343 192.821 H 0 **** 0.053
46347 H91 47.1379 130.475 192.994 H 0 **** 0.053
46348 H92 44.0435 125.061 185.561 H 0 **** 0.41
46349 H93 43.4003 121.148 181.054 H 0 **** 0.053
46350 H94 42.2209 119.431 179.692 H 0 **** 0.053
46351 H95 42.93 120.664 178.621 H 0 **** 0.053
46352 H96 41.1732 120.675 178.975 H 0 **** 0.053
46353 H97 43.3496 129.335 177.087 H 0 **** 0.41
46354 H98 43.9961 135.522 182.734 H 0 **** 0.41
46355 H99 41.2484 123.693 176.745 H 0 **** 0.41
46356 H100 42.3748 130.51 181.522 H 0 **** 0.053
46357 H101 42.857 133.763 183.588 H 0 **** 0.053
46358 H102 41.6692 121.184 181.391 H 0 **** 0.053
46359 C1 61.9371 132.827 118.9 C.ar 0 **** 0.042
46360 C2 62.4301 132.019 117.893 C.ar 0 **** -0.1268
46361 C3 63.7275 131.536 117.945 C.ar 0 **** 0
46362 C4 64.5696 131.853 119.011 C.ar 0 **** 0
46363 C5 64.0568 132.661 120.031 C.ar 0 **** -0.1268
46364 C6 62.7634 133.159 119.982 C.ar 0 **** 0
46365 C7 65.8463 131.202 118.761 C.ar 0 **** 0
46366 C8 65.7369 130.505 117.571 C.ar 0 **** 0
46367 C9 64.3956 130.65 116.938 C.3 0 **** -0.106
46368 C10 66.8158 129.769 117.093 C.ar 0 **** 0
46369 C11 68.0285 129.72 117.812 C.ar 0 **** 0
46370 C12 68.0857 130.462 119.024 C.ar 0 **** 0
46371 C13 67.0049 131.214 119.497 C.ar 0 **** 0
46372 C14 67.1169 131.979 120.786 C.3 0 **** -0.106
46373 C15 68.5493 132.465 121.01 C.3 0 **** -0.106
46374 C16 69.4352 131.251 121.088 C.3 0 **** -0.106
46375 C17 69.392 130.432 119.815 C.ar 0 **** 0
46376 C18 70.4658 129.699 119.423 C.ar 0 **** 0
46377 C19 70.4198 128.955 118.278 C.ar 0 **** 0
46378 C20 69.1499 128.954 117.339 C.ar 0 **** 0
46379 C21 68.9935 128.29 116.057 C.ar 0 **** 0
46380 C22 67.7437 128.369 115.433 C.ar 0 **** 0
46381 C23 66.6902 129.074 115.901 C.ar 0 **** 0.042
46382 C24 71.6258 128.113 117.888 C.3 0 **** -0.106
46383 C25 72.7452 127.964 118.959 C.ar 0 **** 0
46384 C26 72.7493 128.761 120.077 C.ar 0 **** 0
46385 C27 71.6811 129.771 120.343 C.3 0 **** -0.106
46386 C28 73.7797 128.665 121.01 C.ar 0 **** 0.042
46387 C29 74.8369 127.786 120.848 C.ar 0 **** 0
46388 C30 74.8096 126.981 119.72 C.ar 0 **** 0
46389 C31 73.787 127.059 118.778 C.ar 0 **** 0
46390 C32 75.9231 125.961 119.434 C.ar 0 **** 0
46391 C33 77.0269 125.925 120.496 C.3 0 **** -0.106
46392 C34 77.245 127.282 121.163 C.3 0 **** -0.106
46393 C35 75.9502 127.687 121.864 C.3 0 **** -0.106
46394 C36 73.8559 126.133 117.581 C.ar 0 **** -0.1268
46395 C37 74.8993 125.273 117.441 C.ar 0 **** 0.0265
46396 C38 75.9024 125.181 118.325 C.ar 0 **** -0.1268
46397 C39 67.5882 127.645 114.148 C.3 0 **** -0.106
46398 C40 68.9886 127.136 114.038 C.ar 0 **** 0
46399 C41 69.7917 127.498 115.122 C.ar 0 **** 0
46400 C42 71.1373 127.082 115.043 C.ar 0 **** -0.1268
46401 C43 71.6183 126.312 113.964 C.ar 0 **** 0
46402 C44 70.7704 125.951 112.895 C.ar 0 **** 0
46403 C45 69.436 126.385 112.94 C.ar 0 **** 0
46404 C46 68.5792 126.06 111.866 C.ar 0 **** -0.1268
46405 C47 69.0031 125.325 110.769 C.ar 0 **** 0
46406 C48 70.3218 124.91 110.743 C.ar 0 **** -0.1268
46407 C49 71.2227 125.204 111.781 C.ar 0 **** 0
46408 C50 72.5669 124.792 111.75 C.ar 0 **** 0.042
46409 C51 73.4202 125.123 112.784 C.ar 0 **** -0.1268
46410 C52 72.9666 125.871 113.867 C.ar 0 **** -0.1268
46411 O53 60.65 133.307 118.853 O.3 0 **** -0.452
46412 C54 62.2325 134.032 121.109 C.3 0 **** -0.159
46413 O55 65.5401 129.096 115.206 O.3 0 **** -0.452
46414 C56 67.9697 125.058 109.681 C.3 0 **** -0.106
46415 C57 68.4743 124.093 108.601 C.3 0 **** -0.159
46416 O58 74.922 124.48 116.357 O.3 0 **** -0.4365
46417 O59 73.8104 129.438 122.138 O.3 0 **** -0.452
46418 O60 73.1197 124.077 110.751 O.3 0 **** -0.452
46419 H61 61.803 131.729 117.018 H 0 **** 0.1268
46420 H62 64.6254 132.942 120.928 H 0 **** 0.1268
46421 H63 64.4241 131.15 115.952 H 0 **** 0.053
46422 H64 63.8428 129.697 116.85 H 0 **** 0.053
46423 H65 66.484 132.862 120.786 H 0 **** 0.053
46424 H66 66.8216 131.341 121.648 H 0 **** 0.053
46425 H67 68.8612 133.154 120.187 H 0 **** 0.053
46426 H68 68.6147 133.07 121.962 H 0 **** 0.053
46427 H69 70.4563 131.587 121.306 H 0 **** 0.053
46428 H70 69.1131 130.632 121.943 H 0 **** 0.053
46429 H71 71.2665 127.093 117.636 H 0 **** 0.053
46430 H72 71.3185 129.615 121.364 H 0 **** 0.053
46431 H73 76.7534 125.176 121.267 H 0 **** 0.053
46432 H74 77.9438 125.563 120.011 H 0 **** 0.053
46433 H75 78.0654 127.215 121.888 H 0 **** 0.053
46434 H76 77.5351 128.035 120.416 H 0 **** 0.053
46435 H77 75.6804 126.94 122.622 H 0 **** 0.053
46436 H78 76.0777 128.634 122.376 H 0 **** 0.053
46437 H79 73.053 126.174 116.87 H 0 **** 0.1268
46438 H80 76.7147 124.483 118.194 H 0 **** 0.1268
46439 H81 66.8693 126.813 114.202 H 0 **** 0.053
46440 H82 67.3446 128.307 113.301 H 0 **** 0.053
46441 H83 71.9049 127.324 115.764 H 0 **** 0.1268
46442 H84 67.5263 126.396 111.888 H 0 **** 0.1268
46443 H85 70.659 124.338 109.883 H 0 **** 0.1268
46444 H86 74.4785 124.814 112.779 H 0 **** 0.1268
46445 H87 73.6801 126.168 114.687 H 0 **** 0.1268
46446 H88 60.2433 132.983 118.061 H 0 **** 0.41
46447 H89 61.5222 134.775 120.727 H 0 **** 0.053
46448 H90 63.0363 134.587 121.612 H 0 **** 0.053
46449 H91 61.7089 133.419 121.86 H 0 **** 0.053
46450 H92 65.6174 128.572 114.421 H 0 **** 0.41
46451 H93 67.0651 124.634 110.129 H 0 **** 0.053
46452 H94 67.6987 123.911 107.832 H 0 **** 0.053
46453 H95 68.7461 123.108 109.027 H 0 **** 0.053
46454 H96 69.359 124.496 108.074 H 0 **** 0.053
46455 H97 74.1203 124.552 115.864 H 0 **** 0.41
46456 H98 73.0626 130.013 122.162 H 0 **** 0.41
46457 H99 72.4629 123.898 110.09 H 0 **** 0.41
46458 H100 72.0991 128.625 117.025 H 0 **** 0.053
46459 H101 72.1046 130.779 120.26 H 0 **** 0.053
46460 H102 67.6846 126.003 109.204 H 0 **** 0.053
46461 C1 60.9258 127.119 148.412 C.ar 0 **** 0.042
46462 C2 60.0224 127.124 149.459 C.ar 0 **** -0.1268
46463 C3 58.7441 126.617 149.292 C.ar 0 **** 0
46464 C4 58.3346 126.091 148.066 C.ar 0 **** 0
46465 C5 59.26 126.079 147.018 C.ar 0 **** -0.1268
46466 C6 60.538 126.595 147.171 C.ar 0 **** 0
46467 C7 56.9553 125.655 148.222 C.ar 0 **** 0
46468 C8 56.5785 125.914 149.529 C.ar 0 **** 0
46469 C9 57.6643 126.549 150.328 C.3 0 **** -0.106
46470 C10 55.3011 125.579 149.964 C.ar 0 **** 0
46471 C11 54.3776 124.972 149.087 C.ar 0 **** 0
46472 C12 54.8172 124.738 147.755 C.ar 0 **** 0
46473 C13 56.0979 125.088 147.313 C.ar 0 **** 0
46474 C14 56.5135 124.816 145.895 C.3 0 **** -0.106
46475 C15 55.3181 124.916 144.947 C.3 0 **** -0.106
46476 C16 54.3154 123.876 145.366 C.3 0 **** -0.106
46477 C17 53.8316 124.09 146.785 C.ar 0 **** 0
46478 C18 52.5859 123.702 147.161 C.ar 0 **** 0
46479 C19 52.156 123.89 148.444 C.ar 0 **** 0
46480 C20 53.0568 124.608 149.525 C.ar 0 **** 0
46481 C21 52.7011 124.956 150.889 C.ar 0 **** 0
46482 C22 53.6934 125.527 151.693 C.ar 0 **** 0
46483 C23 54.9396 125.841 151.276 C.ar 0 **** 0.042
46484 C24 50.7689 123.408 148.843 C.3 0 **** -0.106
46485 C25 50.0251 122.504 147.817 C.ar 0 **** 0
46486 C26 50.4945 122.376 146.533 C.ar 0 **** 0
46487 C27 51.7411 123.055 146.067 C.3 0 **** -0.106
46488 C28 49.8001 121.61 145.599 C.ar 0 **** 0.042
46489 C29 48.6167 120.964 145.913 C.ar 0 **** 0
46490 C30 48.1646 121.094 147.218 C.ar 0 **** 0
46491 C31 48.8458 121.851 148.167 C.ar 0 **** 0
46492 C32 46.8674 120.417 147.689 C.ar 0 **** 0
46493 C33 46.1534 119.607 146.602 C.3 0 **** -0.106
46494 C34 46.374 120.177 145.203 C.3 0 **** -0.106
46495 C35 47.8693 120.136 144.896 C.3 0 **** -0.106
46496 C36 48.2624 121.926 149.564 C.ar 0 **** -0.1268
46497 C37 47.1023 121.281 149.856 C.ar 0 **** 0.0265
46498 C38 46.4193 120.553 148.961 C.ar 0 **** -0.1268
46499 C39 53.3261 125.831 153.098 C.3 0 **** -0.106
46500 C40 51.8974 125.4 153.025 C.ar 0 **** 0
46501 C41 51.5369 124.899 151.773 C.ar 0 **** 0
46502 C42 50.1842 124.523 151.638 C.ar 0 **** -0.1268
46503 C43 49.2755 124.606 152.714 C.ar 0 **** 0
46504 C44 49.6829 125.1 153.971 C.ar 0 **** 0
46505 C45 51.0179 125.51 154.114 C.ar 0 **** 0
46506 C46 51.4376 126.038 155.355 C.ar 0 **** -0.1268
46507 C47 50.5835 126.162 156.44 C.ar 0 **** 0
46508 C48 49.2722 125.755 156.277 C.ar 0 **** -0.1268
46509 C49 48.7946 125.224 155.067 C.ar 0 **** 0
46510 C50 47.4585 124.82 154.897 C.ar 0 **** 0.042
46511 C51 47.0301 124.326 153.68 C.ar 0 **** -0.1268
46512 C52 47.9093 124.226 152.605 C.ar 0 **** -0.1268
46513 O53 62.1962 127.618 148.574 O.3 0 **** -0.452
46514 C54 61.5238 126.565 146.013 C.3 0 **** -0.159
46515 O55 55.8077 126.405 152.133 O.3 0 **** -0.452
46516 C56 51.1737 126.756 157.714 C.3 0 **** -0.106
46517 C57 50.2123 126.689 158.906 C.3 0 **** -0.159
46518 O58 46.62 121.383 151.105 O.3 0 **** -0.4365
46519 O59 50.2444 121.456 144.314 O.3 0 **** -0.452
46520 O60 46.5173 124.882 155.859 O.3 0 **** -0.452
46521 H61 60.2937 127.527 150.461 H 0 **** 0.1268
46522 H62 59.0482 125.66 146.024 H 0 **** 0.1268
46523 H63 57.4144 127.565 150.684 H 0 **** 0.053
46524 H64 58.0012 125.933 151.183 H 0 **** 0.053
46525 H65 57.249 125.536 145.547 H 0 **** 0.053
46526 H66 56.9529 123.799 145.803 H 0 **** 0.053
46527 H67 54.8834 125.945 144.975 H 0 **** 0.053
46528 H68 55.6477 124.748 143.879 H 0 **** 0.053
46529 H69 53.4794 123.902 144.656 H 0 **** 0.053
46530 H70 54.7804 122.878 145.276 H 0 **** 0.053
46531 H71 50.863 122.833 149.788 H 0 **** 0.053
46532 H72 52.3705 122.304 145.579 H 0 **** 0.053
46533 H73 46.526 118.563 146.637 H 0 **** 0.053
46534 H74 45.0859 119.573 146.861 H 0 **** 0.053
46535 H75 45.8171 119.586 144.466 H 0 **** 0.053
46536 H76 45.9937 121.207 145.145 H 0 **** 0.053
46537 H77 48.2352 119.101 144.937 H 0 **** 0.053
46538 H78 48.0608 120.506 143.895 H 0 **** 0.053
46539 H79 48.8025 122.489 150.301 H 0 **** 0.1268
46540 H80 45.5042 120.044 149.22 H 0 **** 0.1268
46541 H81 53.8823 125.229 153.833 H 0 **** 0.053
46542 H82 53.4001 126.902 153.346 H 0 **** 0.053
46543 H83 49.7254 124.173 150.725 H 0 **** 0.1268
46544 H84 52.4857 126.366 155.48 H 0 **** 0.1268
46545 H85 48.598 125.856 157.124 H 0 **** 0.1268
46546 H86 45.9861 124.009 153.522 H 0 **** 0.1268
46547 H87 47.54 123.857 151.607 H 0 **** 0.1268
46548 H88 62.2786 127.928 149.466 H 0 **** 0.41
46549 H89 62.1918 127.433 146.046 H 0 **** 0.053
46550 H90 61.0148 126.589 145.04 H 0 **** 0.053
46551 H91 62.1471 125.657 146.059 H 0 **** 0.053
46552 H92 55.4051 126.521 152.983 H 0 **** 0.41
46553 H93 52.0916 126.221 157.978 H 0 **** 0.053
46554 H94 50.6725 127.118 159.818 H 0 **** 0.053
46555 H95 49.9292 125.646 159.145 H 0 **** 0.053
46556 H96 49.2854 127.262 158.717 H 0 **** 0.053
46557 H97 47.2257 121.838 151.668 H 0 **** 0.41
46558 H98 51.0442 121.94 144.186 H 0 **** 0.41
46559 H99 46.899 125.241 156.65 H 0 **** 0.41
46560 H100 50.1428 124.316 148.955 H 0 **** 0.053
46561 H101 51.4811 123.834 145.341 H 0 **** 0.053
46562 H102 51.4468 127.803 157.539 H 0 **** 0.053
46563 C1 46.2375 123.887 101.201 C.ar 0 **** 0.042
46564 C2 45.5366 122.705 101.349 C.ar 0 **** -0.1268
46565 C3 44.1646 122.715 101.539 C.ar 0 **** 0
46566 C4 43.4553 123.916 101.589 C.ar 0 **** 0
46567 C5 44.172 125.106 101.428 C.ar 0 **** -0.1268
46568 C6 45.5473 125.106 101.25 C.ar 0 **** 0
46569 C7 42.0552 123.581 101.802 C.ar 0 **** 0
46570 C8 41.9565 122.202 101.859 C.ar 0 **** 0
46571 C9 43.2734 121.522 101.704 C.3 0 **** -0.106
46572 C10 40.7162 121.6 102.039 C.ar 0 **** 0
46573 C11 39.548 122.381 102.164 C.ar 0 **** 0
46574 C12 39.7111 123.792 102.107 C.ar 0 **** 0
46575 C13 40.9609 124.399 101.939 C.ar 0 **** 0
46576 C14 41.078 125.896 101.883 C.3 0 **** -0.106
46577 C15 40.0101 126.56 102.752 C.3 0 **** -0.106
46578 C16 38.6652 126.159 102.21 C.3 0 **** -0.106
46579 C17 38.4612 124.659 102.248 C.ar 0 **** 0
46580 C18 37.218 124.13 102.384 C.ar 0 **** 0
46581 C19 37.0373 122.776 102.41 C.ar 0 **** 0
46582 C20 38.2556 121.773 102.338 C.ar 0 **** 0
46583 C21 38.2234 120.325 102.446 C.ar 0 **** 0
46584 C22 39.4285 119.635 102.278 C.ar 0 **** 0
46585 C23 40.6329 120.218 102.089 C.ar 0 **** 0.042
46586 C24 35.6273 122.215 102.523 C.3 0 **** -0.106
46587 C25 34.4597 123.23 102.352 C.ar 0 **** 0
46588 C26 34.7043 124.581 102.364 C.ar 0 **** 0
46589 C27 36.082 125.143 102.493 C.3 0 **** -0.106
46590 C28 33.6528 125.49 102.274 C.ar 0 **** 0.042
46591 C29 32.335 125.081 102.167 C.ar 0 **** 0
46592 C30 32.1085 123.714 102.144 C.ar 0 **** 0
46593 C31 33.1444 122.788 102.238 C.ar 0 **** 0
46594 C32 30.6881 123.137 102.031 C.ar 0 **** 0
46595 C33 29.5871 124.198 101.941 C.3 0 **** -0.106
46596 C34 29.9447 125.482 102.688 C.3 0 **** -0.106
46597 C35 31.2022 126.073 102.055 C.3 0 **** -0.106
46598 C36 32.7843 121.317 102.207 C.ar 0 **** -0.1268
46599 C37 31.4842 120.933 102.107 C.ar 0 **** 0.0265
46600 C38 30.4645 121.799 102.023 C.ar 0 **** -0.1268
46601 C39 39.3681 118.154 102.344 C.3 0 **** -0.106
46602 C40 37.9092 118.03 102.641 C.ar 0 **** 0
46603 C41 37.2527 119.261 102.698 C.ar 0 **** 0
46604 C42 35.8817 119.201 103.024 C.ar 0 **** -0.1268
46605 C43 35.2166 117.974 103.23 C.ar 0 **** 0
46606 C44 35.9106 116.749 103.144 C.ar 0 **** 0
46607 C45 37.2836 116.791 102.854 C.ar 0 **** 0
46608 C46 38.0036 115.578 102.796 C.ar 0 **** -0.1268
46609 C47 37.4066 114.345 103.011 C.ar 0 **** 0
46610 C48 36.0543 114.326 103.298 C.ar 0 **** -0.1268
46611 C49 35.285 115.499 103.372 C.ar 0 **** 0
46612 C50 33.912 115.482 103.675 C.ar 0 **** 0.042
46613 C51 33.2026 116.664 103.759 C.ar 0 **** -0.1268
46614 C52 33.8339 117.887 103.551 C.ar 0 **** -0.1268
46615 O53 47.5974 123.882 101.003 O.3 0 **** -0.452
46616 C54 46.2991 126.417 101.076 C.3 0 **** -0.159
46617 O55 41.7303 119.452 101.957 O.3 0 **** -0.452
46618 C56 38.3104 113.119 102.924 C.3 0 **** -0.106
46619 C57 37.5352 111.799 102.996 C.3 0 **** -0.159
46620 O58 31.2131 119.618 102.093 O.3 0 **** -0.4365
46621 O59 33.8615 126.842 102.284 O.3 0 **** -0.452
46622 O60 33.1991 114.363 103.908 O.3 0 **** -0.452
46623 H61 46.0485 121.716 101.315 H 0 **** 0.1268
46624 H62 43.7059 126.101 101.423 H 0 **** 0.1268
46625 H63 43.577 120.941 102.593 H 0 **** 0.053
46626 H64 43.3358 120.879 100.807 H 0 **** 0.053
46627 H65 42.0401 126.238 102.253 H 0 **** 0.053
46628 H66 40.9593 126.26 100.838 H 0 **** 0.053
46629 H67 40.1334 126.257 103.821 H 0 **** 0.053
46630 H68 40.1307 127.684 102.733 H 0 **** 0.053
46631 H69 37.8939 126.677 102.793 H 0 **** 0.053
46632 H70 38.579 126.523 101.171 H 0 **** 0.053
46633 H71 35.5053 121.43 101.747 H 0 **** 0.053
46634 H72 36.225 125.873 101.69 H 0 **** 0.053
46635 H73 29.4073 124.433 100.872 H 0 **** 0.053
46636 H74 28.6616 123.751 102.329 H 0 **** 0.053
46637 H75 29.1143 126.196 102.624 H 0 **** 0.053
46638 H76 30.1086 125.272 103.755 H 0 **** 0.053
46639 H77 31.023 126.297 100.994 H 0 **** 0.053
46640 H78 31.4682 127.005 102.54 H 0 **** 0.053
46641 H79 33.5858 120.604 102.254 H 0 **** 0.1268
46642 H80 29.4417 121.467 101.937 H 0 **** 0.1268
46643 H81 39.6181 117.665 101.389 H 0 **** 0.053
46644 H82 39.9719 117.728 103.161 H 0 **** 0.053
46645 H83 35.2398 120.058 103.167 H 0 **** 0.1268
46646 H84 39.0855 115.597 102.57 H 0 **** 0.1268
46647 H85 35.5832 113.362 103.472 H 0 **** 0.1268
46648 H86 32.1271 116.675 104.001 H 0 **** 0.1268
46649 H87 33.2538 118.847 103.66 H 0 **** 0.1268
46650 H88 47.8968 122.983 101.027 H 0 **** 0.41
46651 H89 47.3049 126.352 101.508 H 0 **** 0.053
46652 H90 45.7901 127.252 101.577 H 0 **** 0.053
46653 H91 46.4056 126.666 100.008 H 0 **** 0.053
46654 H92 41.5028 118.535 102.023 H 0 **** 0.41
46655 H93 38.8703 113.142 101.984 H 0 **** 0.053
46656 H94 38.2163 110.929 102.92 H 0 **** 0.053
46657 H95 36.8013 111.71 102.172 H 0 **** 0.053
46658 H96 36.991 111.696 103.954 H 0 **** 0.053
46659 H97 32.0053 119.106 102.061 H 0 **** 0.41
46660 H98 34.7837 127.032 102.341 H 0 **** 0.41
46661 H99 33.7666 113.606 103.839 H 0 **** 0.41
46662 H100 35.532 121.816 103.554 H 0 **** 0.053
46663 H101 36.1791 125.649 103.459 H 0 **** 0.053
46664 H102 39.0423 113.144 103.74 H 0 **** 0.053
46665 C1 24.8631 113.698 148.924 C.ar 0 **** 0.042
46666 C2 25.2492 114.141 150.176 C.ar 0 **** -0.1268
46667 C3 24.5175 115.113 150.838 C.ar 0 **** 0
46668 C4 23.3753 115.67 150.261 C.ar 0 **** 0
46669 C5 22.9863 115.206 149.001 C.ar 0 **** -0.1268
46670 C6 23.7191 114.242 148.325 C.ar 0 **** 0
46671 C7 22.8519 116.65 151.2 C.ar 0 **** 0
46672 C8 23.6751 116.648 152.313 C.ar 0 **** 0
46673 C9 24.8058 115.685 152.193 C.3 0 **** -0.106
46674 C10 23.3968 117.486 153.387 C.ar 0 **** 0
46675 C11 22.2775 118.345 153.358 C.ar 0 **** 0
46676 C12 21.4729 118.31 152.187 C.ar 0 **** 0
46677 C13 21.7604 117.477 151.1 C.ar 0 **** 0
46678 C14 20.8755 117.477 149.886 C.3 0 **** -0.106
46679 C15 20.2674 118.861 149.654 C.3 0 **** -0.106
46680 C16 19.435 119.201 150.86 C.3 0 **** -0.106
46681 C17 20.2599 119.237 152.129 C.ar 0 **** 0
46682 C18 19.9119 120.048 153.162 C.ar 0 **** 0
46683 C19 20.6549 120.072 154.308 C.ar 0 **** 0
46684 C20 21.9679 119.209 154.466 C.ar 0 **** 0
46685 C21 22.8996 119.203 155.58 C.ar 0 **** 0
46686 C22 23.9633 118.295 155.532 C.ar 0 **** 0
46687 C23 24.2281 117.47 154.495 C.ar 0 **** 0.042
46688 C24 20.215 120.963 155.461 C.3 0 **** -0.106
46689 C25 18.8002 121.602 155.346 C.ar 0 **** 0
46690 C26 18.1151 121.567 154.157 C.ar 0 **** 0
46691 C27 18.6611 120.894 152.94 C.3 0 **** -0.106
46692 C28 16.872 122.185 154.039 C.ar 0 **** 0.042
46693 C29 16.2865 122.864 155.093 C.ar 0 **** 0
46694 C30 16.9875 122.879 156.289 C.ar 0 **** 0
46695 C31 18.2286 122.264 156.43 C.ar 0 **** 0
46696 C32 16.4369 123.595 157.533 C.ar 0 **** 0
46697 C33 15.0749 124.263 157.32 C.3 0 **** -0.106
46698 C34 14.8745 124.744 155.884 C.3 0 **** -0.106
46699 C35 14.9392 123.532 154.957 C.3 0 **** -0.106
46700 C36 18.9081 122.341 157.782 C.ar 0 **** -0.1268
46701 C37 18.3153 123.008 158.807 C.ar 0 **** 0.0265
46702 C38 17.1265 123.618 158.701 C.ar 0 **** -0.1268
46703 C39 24.8769 118.27 156.7 C.3 0 **** -0.106
46704 C40 24.2313 119.369 157.479 C.ar 0 **** 0
46705 C41 23.1053 119.902 156.848 C.ar 0 **** 0
46706 C42 22.487 120.977 157.52 C.ar 0 **** -0.1268
46707 C43 22.9526 121.444 158.767 C.ar 0 **** 0
46708 C44 24.083 120.866 159.383 C.ar 0 **** 0
46709 C45 24.7316 119.817 158.712 C.ar 0 **** 0
46710 C46 25.884 119.247 159.295 C.ar 0 **** -0.1268
46711 C47 26.3978 119.679 160.508 C.ar 0 **** 0
46712 C48 25.7465 120.716 161.151 C.ar 0 **** -0.1268
46713 C49 24.5973 121.325 160.62 C.ar 0 **** 0
46714 C50 23.9393 122.386 161.267 C.ar 0 **** 0.042
46715 C51 22.8262 122.969 160.694 C.ar 0 **** -0.1268
46716 C52 22.342 122.521 159.468 C.ar 0 **** -0.1268
46717 O53 25.5836 112.731 148.265 O.3 0 **** -0.452
46718 C54 23.2693 113.755 146.956 C.3 0 **** -0.159
46719 O55 25.2923 116.65 154.55 O.3 0 **** -0.452
46720 C56 27.6529 118.976 161.012 C.3 0 **** -0.106
46721 C57 28.044 119.395 162.434 C.3 0 **** -0.159
46722 O58 18.9589 123.055 159.985 O.3 0 **** -0.4365
46723 O59 16.1597 122.161 152.871 O.3 0 **** -0.452
46724 O60 24.3222 122.91 162.448 O.3 0 **** -0.452
46725 H61 26.1498 113.731 150.687 H 0 **** 0.1268
46726 H62 22.0881 115.556 148.474 H 0 **** 0.1268
46727 H63 25.7994 116.168 152.197 H 0 **** 0.053
46728 H64 24.7848 114.882 152.953 H 0 **** 0.053
46729 H65 21.4287 117.225 148.986 H 0 **** 0.053
46730 H66 20.0483 116.743 150.003 H 0 **** 0.053
46731 H67 21.072 119.616 149.48 H 0 **** 0.053
46732 H68 19.6345 118.86 148.718 H 0 **** 0.053
46733 H69 18.9484 120.167 150.678 H 0 **** 0.053
46734 H70 18.6299 118.451 150.958 H 0 **** 0.053
46735 H71 20.2334 120.356 156.391 H 0 **** 0.053
46736 H72 17.8875 120.225 152.55 H 0 **** 0.053
46737 H73 14.279 123.535 157.578 H 0 **** 0.053
46738 H74 14.9949 125.091 158.037 H 0 **** 0.053
46739 H75 13.903 125.244 155.789 H 0 **** 0.053
46740 H76 15.6449 125.48 155.616 H 0 **** 0.053
46741 H77 14.1529 122.812 155.221 H 0 **** 0.053
46742 H78 14.77 123.833 153.929 H 0 **** 0.053
46743 H79 19.8524 121.844 157.896 H 0 **** 0.1268
46744 H80 16.6756 124.134 159.534 H 0 **** 0.1268
46745 H81 24.8433 117.32 157.258 H 0 **** 0.053
46746 H82 25.9175 118.528 156.446 H 0 **** 0.053
46747 H83 21.6452 121.541 157.146 H 0 **** 0.1268
46748 H84 26.4054 118.422 158.777 H 0 **** 0.1268
46749 H85 26.1503 121.063 162.099 H 0 **** 0.1268
46750 H86 22.2991 123.806 161.18 H 0 **** 0.1268
46751 H87 21.4563 123.028 158.992 H 0 **** 0.1268
46752 H88 26.3195 112.489 148.81 H 0 **** 0.41
46753 H89 24.1312 113.492 146.331 H 0 **** 0.053
46754 H90 22.702 114.523 146.412 H 0 **** 0.053
46755 H91 22.637 112.857 147.053 H 0 **** 0.053
46756 H92 25.7543 116.766 155.369 H 0 **** 0.41
46757 H93 27.4976 117.893 160.999 H 0 **** 0.053
46758 H94 28.9524 118.86 162.775 H 0 **** 0.053
46759 H95 27.2418 119.169 163.162 H 0 **** 0.053
46760 H96 28.2695 120.476 162.495 H 0 **** 0.053
46761 H97 19.7367 122.521 159.971 H 0 **** 0.41
46762 H98 16.6386 121.692 152.207 H 0 **** 0.41
46763 H99 25.1006 122.462 162.754 H 0 **** 0.41
46764 H100 20.9289 121.811 155.491 H 0 **** 0.053
46765 H101 18.8991 121.65 152.183 H 0 **** 0.053
46766 H102 28.4881 119.193 160.338 H 0 **** 0.053
46767 C1 53.8051 92.445 122.345 C.ar 0 **** 0.042
46768 C2 53.8231 92.4114 123.727 C.ar 0 **** -0.1268
46769 C3 53.9417 93.5799 124.461 C.ar 0 **** 0
46770 C4 54.047 94.8187 123.828 C.ar 0 **** 0
46771 C5 54.0141 94.8431 122.43 C.ar 0 **** -0.1268
46772 C6 53.9084 93.6776 121.686 C.ar 0 **** 0
46773 C7 54.161 95.8277 124.87 C.ar 0 **** 0
46774 C8 54.1076 95.179 126.091 C.ar 0 **** 0
46775 C9 53.969 93.7016 125.955 C.3 0 **** -0.106
46776 C10 54.1777 95.9107 127.272 C.ar 0 **** 0
46777 C11 54.3013 97.3155 127.242 C.ar 0 **** 0
46778 C12 54.3602 97.9265 125.959 C.ar 0 **** 0
46779 C13 54.3033 97.1893 124.771 C.ar 0 **** 0
46780 C14 54.3671 97.8849 123.44 C.3 0 **** -0.106
46781 C15 55.229 99.1449 123.524 C.3 0 **** -0.106
46782 C16 54.5898 100.069 124.524 C.3 0 **** -0.106
46783 C17 54.503 99.4464 125.901 C.ar 0 **** 0
46784 C18 54.5344 100.219 127.017 C.ar 0 **** 0
46785 C19 54.4478 99.6534 128.258 C.ar 0 **** 0
46786 C20 54.3621 98.0887 128.453 C.ar 0 **** 0
46787 C21 54.358 97.3476 129.702 C.ar 0 **** 0
46788 C22 54.2005 95.9592 129.632 C.ar 0 **** 0
46789 C23 54.1195 95.2476 128.486 C.ar 0 **** 0.042
46790 C24 54.4459 100.551 129.487 C.3 0 **** -0.106
46791 C25 54.2914 102.079 129.232 C.ar 0 **** 0
46792 C26 54.4156 102.589 127.963 C.ar 0 **** 0
46793 C27 54.6634 101.72 126.773 C.3 0 **** -0.106
46794 C28 54.3311 103.962 127.742 C.ar 0 **** 0.042
46795 C29 54.1358 104.862 128.776 C.ar 0 **** 0
46796 C30 54.0013 104.327 130.048 C.ar 0 **** 0
46797 C31 54.078 102.958 130.29 C.ar 0 **** 0
46798 C32 53.7742 105.224 131.275 C.ar 0 **** 0
46799 C33 53.7079 106.721 130.953 C.3 0 **** -0.106
46800 C34 54.5675 107.102 129.75 C.3 0 **** -0.106
46801 C35 54.0457 106.348 128.528 C.3 0 **** -0.106
46802 C36 53.9207 102.482 131.719 C.ar 0 **** -0.1268
46803 C37 53.7287 103.38 132.721 C.ar 0 **** 0.0265
46804 C38 53.6569 104.703 132.522 C.ar 0 **** -0.1268
46805 C39 54.1502 95.2243 130.92 C.3 0 **** -0.106
46806 C40 54.3614 96.3956 131.823 C.ar 0 **** 0
46807 C41 54.4778 97.6057 131.137 C.ar 0 **** 0
46808 C42 54.727 98.7367 131.942 C.ar 0 **** -0.1268
46809 C43 54.8046 98.6497 133.347 C.ar 0 **** 0
46810 C44 54.6615 97.4105 134.007 C.ar 0 **** 0
46811 C45 54.4466 96.2685 133.219 C.ar 0 **** 0
46812 C46 54.3343 95.014 133.857 C.ar 0 **** -0.1268
46813 C47 54.4236 94.8659 135.233 C.ar 0 **** 0
46814 C48 54.6392 96.0024 135.99 C.ar 0 **** -0.1268
46815 C49 54.7619 97.2776 135.413 C.ar 0 **** 0
46816 C50 54.9937 98.4326 136.181 C.ar 0 **** 0.042
46817 C51 55.1298 99.6616 135.566 C.ar 0 **** -0.1268
46818 C52 55.0473 99.7758 134.181 C.ar 0 **** -0.1268
46819 O53 53.6856 91.2881 121.613 O.3 0 **** -0.452
46820 C54 53.8722 93.7361 120.166 C.3 0 **** -0.159
46821 O55 53.9872 93.9108 128.54 O.3 0 **** -0.452
46822 C56 54.2911 93.4493 135.781 C.3 0 **** -0.106
46823 C57 54.2229 93.4051 137.312 C.3 0 **** -0.159
46824 O58 53.6075 102.912 133.974 O.3 0 **** -0.4365
46825 O59 54.4438 104.502 126.489 O.3 0 **** -0.452
46826 O60 55.1067 98.4418 137.524 O.3 0 **** -0.452
46827 H61 53.7387 91.4523 124.288 H 0 **** 0.1268
46828 H62 54.0587 95.7666 121.837 H 0 **** 0.1268
46829 H63 54.826 93.1383 126.366 H 0 **** 0.053
46830 H64 53.0299 93.3044 126.382 H 0 **** 0.053
46831 H65 54.8116 97.2522 122.677 H 0 **** 0.053
46832 H66 53.3485 98.1753 123.101 H 0 **** 0.053
46833 H67 56.276 98.8826 123.813 H 0 **** 0.053
46834 H68 55.3013 99.6395 122.51 H 0 **** 0.053
46835 H69 55.1694 101 124.548 H 0 **** 0.053
46836 H70 53.5782 100.333 124.168 H 0 **** 0.053
46837 H71 53.6076 100.235 130.143 H 0 **** 0.053
46838 H72 53.9283 101.984 126.006 H 0 **** 0.053
46839 H73 52.6516 106.993 130.753 H 0 **** 0.053
46840 H74 54.0128 107.268 131.856 H 0 **** 0.053
46841 H75 54.5158 108.184 129.58 H 0 **** 0.053
46842 H76 55.622 106.854 129.938 H 0 **** 0.053
46843 H77 52.9981 106.618 128.337 H 0 **** 0.053
46844 H78 54.6146 106.618 127.646 H 0 **** 0.053
46845 H79 53.9521 101.425 131.901 H 0 **** 0.1268
46846 H80 53.4904 105.392 133.335 H 0 **** 0.1268
46847 H81 53.175 94.7498 131.113 H 0 **** 0.053
46848 H82 54.9631 94.4893 131.035 H 0 **** 0.053
46849 H83 54.9023 99.7361 131.571 H 0 **** 0.1268
46850 H84 54.1665 94.1067 133.248 H 0 **** 0.1268
46851 H85 54.7154 95.89 137.068 H 0 **** 0.1268
46852 H86 55.3166 100.58 136.147 H 0 **** 0.1268
46853 H87 55.1983 100.777 133.688 H 0 **** 0.1268
46854 H88 53.6279 90.5617 122.219 H 0 **** 0.41
46855 H89 54.3481 92.8504 119.73 H 0 **** 0.053
46856 H90 54.4079 94.6126 119.776 H 0 **** 0.053
46857 H91 52.832 93.7736 119.805 H 0 **** 0.053
46858 H92 53.9665 93.6164 129.44 H 0 **** 0.41
46859 H93 53.3851 92.984 135.38 H 0 **** 0.053
46860 H94 54.1159 92.3654 137.679 H 0 **** 0.053
46861 H95 53.3579 93.9767 137.7 H 0 **** 0.053
46862 H96 55.1406 93.8141 137.774 H 0 **** 0.053
46863 H97 53.5496 101.97 133.986 H 0 **** 0.41
46864 H98 54.5851 103.82 125.853 H 0 **** 0.41
46865 H99 55.0019 97.5588 137.854 H 0 **** 0.41
46866 H100 55.4368 100.423 129.969 H 0 **** 0.053
46867 H101 55.6718 101.911 126.388 H 0 **** 0.053
46868 H102 55.1425 92.845 135.448 H 0 **** 0.053
46869 C1 65.9845 144.006 182.47 C.ar 0 **** 0.042
46870 C2 67.2228 143.723 183.016 C.ar 0 **** -0.1268
46871 C3 68.2962 143.398 182.203 C.ar 0 **** 0
46872 C4 68.1567 143.347 180.816 C.ar 0 **** 0
46873 C5 66.9038 143.649 180.273 C.ar 0 **** -0.1268
46874 C6 65.8199 143.962 181.079 C.ar 0 **** 0
46875 C7 69.4516 142.977 180.265 C.ar 0 **** 0
46876 C8 70.3315 142.83 181.323 C.ar 0 **** 0
46877 C9 69.6909 143.076 182.646 C.3 0 **** -0.106
46878 C10 71.6587 142.491 181.083 C.ar 0 **** 0
46879 C11 72.1247 142.296 179.766 C.ar 0 **** 0
46880 C12 71.1742 142.452 178.72 C.ar 0 **** 0
46881 C13 69.8355 142.779 178.963 C.ar 0 **** 0
46882 C14 68.8714 142.934 177.82 C.3 0 **** -0.106
46883 C15 69.2389 142.003 176.665 C.3 0 **** -0.106
46884 C16 70.6157 142.383 176.193 C.3 0 **** -0.106
46885 C17 71.6533 142.237 177.286 C.ar 0 **** 0
46886 C18 72.9449 141.946 176.984 C.ar 0 **** 0
46887 C19 73.8798 141.823 177.973 C.ar 0 **** 0
46888 C20 73.4971 141.958 179.499 C.ar 0 **** 0
46889 C21 74.3581 141.762 180.652 C.ar 0 **** 0
46890 C22 73.8146 142.009 181.917 C.ar 0 **** 0
46891 C23 72.5284 142.351 182.152 C.ar 0 **** 0.042
46892 C24 75.3263 141.535 177.598 C.3 0 **** -0.106
46893 C25 75.6895 141.649 176.088 C.ar 0 **** 0
46894 C26 74.701 141.744 175.14 C.ar 0 **** 0
46895 C27 73.2512 141.781 175.498 C.3 0 **** -0.106
46896 C28 75.0237 141.792 173.785 C.ar 0 **** 0.042
46897 C29 76.3329 141.732 173.34 C.ar 0 **** 0
46898 C30 77.3175 141.648 174.312 C.ar 0 **** 0
46899 C31 77.0169 141.603 175.671 C.ar 0 **** 0
46900 C32 78.8082 141.583 173.942 C.ar 0 **** 0
46901 C33 79.0808 141.624 172.435 C.3 0 **** -0.106
46902 C34 77.9564 140.993 171.616 C.3 0 **** -0.106
46903 C35 76.6747 141.784 171.87 C.3 0 **** -0.106
46904 C36 78.1708 141.511 176.649 C.ar 0 **** -0.1268
46905 C37 79.45 141.458 176.193 C.ar 0 **** 0.0265
46906 C38 79.7714 141.49 174.892 C.ar 0 **** -0.1268
46907 C39 74.7224 141.851 183.08 C.3 0 **** -0.106
46908 C40 75.9315 141.402 182.326 C.ar 0 **** 0
46909 C41 75.7311 141.352 180.945 C.ar 0 **** 0
46910 C42 76.8287 140.887 180.191 C.ar 0 **** -0.1268
46911 C43 78.0567 140.544 180.794 C.ar 0 **** 0
46912 C44 78.227 140.627 182.192 C.ar 0 **** 0
46913 C45 77.1341 141.055 182.962 C.ar 0 **** 0
46914 C46 77.2732 141.114 184.366 C.ar 0 **** -0.1268
46915 C47 78.4493 140.769 185.014 C.ar 0 **** 0
46916 C48 79.5124 140.346 184.238 C.ar 0 **** -0.1268
46917 C49 79.4345 140.265 182.837 C.ar 0 **** 0
46918 C50 80.5112 139.825 182.047 C.ar 0 **** 0.042
46919 C51 80.3791 139.74 180.675 C.ar 0 **** -0.1268
46920 C52 79.1803 140.081 180.055 C.ar 0 **** -0.1268
46921 O53 64.9172 144.331 183.273 O.3 0 **** -0.452
46922 C54 64.4696 144.288 180.459 C.3 0 **** -0.159
46923 O55 72.1106 142.546 183.415 O.3 0 **** -0.452
46924 C56 78.4514 140.874 186.535 C.3 0 **** -0.106
46925 C57 79.8379 140.647 187.148 C.3 0 **** -0.159
46926 O58 80.439 141.368 177.097 O.3 0 **** -0.4365
46927 O59 74.0637 141.893 172.816 O.3 0 **** -0.452
46928 O60 81.7114 139.456 182.536 O.3 0 **** -0.452
46929 H61 67.3951 143.752 184.117 H 0 **** 0.1268
46930 H62 66.6968 143.667 179.194 H 0 **** 0.1268
46931 H63 69.6845 142.189 183.305 H 0 **** 0.053
46932 H64 70.1207 143.936 183.192 H 0 **** 0.053
46933 H65 67.8565 142.683 178.114 H 0 **** 0.053
46934 H66 68.8746 143.981 177.444 H 0 **** 0.053
46935 H67 69.1942 140.936 176.996 H 0 **** 0.053
46936 H68 68.4869 142.1 175.827 H 0 **** 0.053
46937 H69 70.8645 141.757 175.327 H 0 **** 0.053
46938 H70 70.5923 143.427 175.836 H 0 **** 0.053
46939 H71 75.9732 142.248 178.152 H 0 **** 0.053
46940 H72 72.7997 142.635 174.982 H 0 **** 0.053
46941 H73 79.2114 142.682 172.127 H 0 **** 0.053
46942 H74 80.0409 141.12 172.257 H 0 **** 0.053
46943 H75 78.2122 141.016 170.549 H 0 **** 0.053
46944 H76 77.8244 139.938 171.894 H 0 **** 0.053
46945 H77 76.8108 142.832 171.57 H 0 **** 0.053
46946 H78 75.859 141.382 171.279 H 0 **** 0.053
46947 H79 77.9389 141.504 177.696 H 0 **** 0.1268
46948 H80 80.7966 141.455 174.558 H 0 **** 0.1268
46949 H81 74.9179 142.796 183.611 H 0 **** 0.053
46950 H82 74.3923 141.075 183.789 H 0 **** 0.053
46951 H83 76.8257 140.731 179.122 H 0 **** 0.1268
46952 H84 76.4198 141.448 184.984 H 0 **** 0.1268
46953 H85 80.4346 140.07 184.742 H 0 **** 0.1268
46954 H86 81.2076 139.392 180.036 H 0 **** 0.1268
46955 H87 79.0713 139.972 178.939 H 0 **** 0.1268
46956 H88 65.2099 144.31 184.174 H 0 **** 0.41
46957 H89 63.6508 143.957 181.109 H 0 **** 0.053
46958 H90 64.3313 143.789 179.49 H 0 **** 0.053
46959 H91 64.3641 145.375 180.31 H 0 **** 0.053
46960 H92 72.8229 142.409 184.024 H 0 **** 0.41
46961 H93 78.0971 141.865 186.835 H 0 **** 0.053
46962 H94 79.8095 140.74 188.252 H 0 **** 0.053
46963 H95 80.5744 141.387 186.779 H 0 **** 0.053
46964 H96 80.2244 139.635 186.923 H 0 **** 0.053
46965 H97 80.1061 141.451 177.976 H 0 **** 0.41
46966 H98 73.206 141.917 173.208 H 0 **** 0.41
46967 H99 81.7055 139.54 183.481 H 0 **** 0.41
46968 H100 75.5175 140.479 177.877 H 0 **** 0.053
46969 H101 72.7691 140.858 175.158 H 0 **** 0.053
46970 H102 77.755 140.139 186.955 H 0 **** 0.053
46971 C1 29.183 109.815 174.797 C.ar 0 **** 0.042
46972 C2 28.3439 110.89 174.57 C.ar 0 **** -0.1268
46973 C3 28.7939 112.006 173.884 C.ar 0 **** 0
46974 C4 30.103 112.075 173.405 C.ar 0 **** 0
46975 C5 30.9394 110.977 173.628 C.ar 0 **** -0.1268
46976 C6 30.5021 109.86 174.324 C.ar 0 **** 0
46977 C7 30.2531 113.363 172.745 C.ar 0 **** 0
46978 C8 29.0397 114.023 172.83 C.ar 0 **** 0
46979 C9 28.0042 113.237 173.558 C.3 0 **** -0.106
46980 C10 28.8917 115.283 172.261 C.ar 0 **** 0
46981 C11 29.9683 115.902 171.592 C.ar 0 **** 0
46982 C12 31.1927 115.181 171.544 C.ar 0 **** 0
46983 C13 31.3459 113.919 172.128 C.ar 0 **** 0
46984 C14 32.6618 113.197 172.046 C.3 0 **** -0.106
46985 C15 33.8271 114.187 172.036 C.3 0 **** -0.106
46986 C16 33.6751 115.058 170.818 C.3 0 **** -0.106
46987 C17 32.3759 115.835 170.833 C.ar 0 **** 0
46988 C18 32.2823 117.044 170.222 C.ar 0 **** 0
46989 C19 31.1056 117.739 170.231 C.ar 0 **** 0
46990 C20 29.8286 117.2 170.988 C.ar 0 **** 0
46991 C21 28.5494 117.866 171.159 C.ar 0 **** 0
46992 C22 27.5319 117.16 171.81 C.ar 0 **** 0
46993 C23 27.6699 115.93 172.351 C.ar 0 **** 0.042
46994 C24 31.0234 119.073 169.503 C.3 0 **** -0.106
46995 C25 32.2245 119.439 168.583 C.ar 0 **** 0
46996 C26 33.3906 118.716 168.64 C.ar 0 **** 0
46997 C27 33.5573 117.539 169.544 C.3 0 **** -0.106
46998 C28 34.4838 119.075 167.855 C.ar 0 **** 0.042
46999 C29 34.4512 120.168 167.007 C.ar 0 **** 0
47000 C30 33.2622 120.88 166.954 C.ar 0 **** 0
47001 C31 32.1561 120.534 167.726 C.ar 0 **** 0
47002 C32 33.1009 122.107 166.043 C.ar 0 **** 0
47003 C33 34.3497 122.444 165.223 C.3 0 **** -0.106
47004 C34 35.6432 122.063 165.939 C.3 0 **** -0.106
47005 C35 35.6408 120.552 166.159 C.3 0 **** -0.106
47006 C36 30.9052 121.379 167.588 C.ar 0 **** -0.1268
47007 C37 30.8895 122.444 166.744 C.ar 0 **** 0.0265
47008 C38 31.9409 122.808 165.996 C.ar 0 **** -0.1268
47009 C39 26.2178 117.838 171.932 C.3 0 **** -0.106
47010 C40 26.6022 119.13 171.288 C.ar 0 **** 0
47011 C41 27.9258 119.151 170.844 C.ar 0 **** 0
47012 C42 28.353 120.368 170.272 C.ar 0 **** -0.1268
47013 C43 27.4824 121.467 170.119 C.ar 0 **** 0
47014 C44 26.1444 121.4 170.563 C.ar 0 **** 0
47015 C45 25.7113 120.208 171.166 C.ar 0 **** 0
47016 C46 24.3858 120.132 171.646 C.ar 0 **** -0.1268
47017 C47 23.4928 121.188 171.542 C.ar 0 **** 0
47018 C48 23.9403 122.353 170.948 C.ar 0 **** -0.1268
47019 C49 25.2479 122.491 170.453 C.ar 0 **** 0
47020 C50 25.7079 123.679 169.859 C.ar 0 **** 0.042
47021 C51 27.0096 123.774 169.407 C.ar 0 **** -0.1268
47022 C52 27.8863 122.7 169.538 C.ar 0 **** -0.1268
47023 O53 28.74 108.704 175.475 O.3 0 **** -0.452
47024 C54 31.4346 108.68 174.549 C.3 0 **** -0.159
47025 O55 26.6255 115.353 172.971 O.3 0 **** -0.452
47026 C56 22.0963 120.965 172.112 C.3 0 **** -0.106
47027 C57 21.1305 122.112 171.794 C.3 0 **** -0.159
47028 O58 29.758 123.162 166.655 O.3 0 **** -0.4365
47029 O59 35.6565 118.37 167.881 O.3 0 **** -0.452
47030 O60 24.9563 124.785 169.691 O.3 0 **** -0.452
47031 H61 27.2879 110.89 174.925 H 0 **** 0.1268
47032 H62 31.975 110.918 173.266 H 0 **** 0.1268
47033 H63 27.6553 113.721 174.488 H 0 **** 0.053
47034 H64 27.1315 112.97 172.934 H 0 **** 0.053
47035 H65 32.8149 112.543 172.9 H 0 **** 0.053
47036 H66 32.7138 112.58 171.122 H 0 **** 0.053
47037 H67 33.8357 114.789 172.977 H 0 **** 0.053
47038 H68 34.8122 113.634 172.012 H 0 **** 0.053
47039 H69 34.5382 115.733 170.771 H 0 **** 0.053
47040 H70 33.7198 114.419 169.918 H 0 **** 0.053
47041 H71 30.1094 119.065 168.873 H 0 **** 0.053
47042 H72 33.9439 116.708 168.946 H 0 **** 0.053
47043 H73 34.2931 121.911 164.253 H 0 **** 0.053
47044 H74 34.3177 123.517 164.997 H 0 **** 0.053
47045 H75 36.5081 122.358 165.332 H 0 **** 0.053
47046 H76 35.7246 122.595 166.897 H 0 **** 0.053
47047 H77 35.5793 120.029 165.195 H 0 **** 0.053
47048 H78 36.5614 120.238 166.639 H 0 **** 0.053
47049 H79 30.0454 121.096 168.164 H 0 **** 0.1268
47050 H80 31.8995 123.655 165.33 H 0 **** 0.1268
47051 H81 25.4163 117.339 171.365 H 0 **** 0.053
47052 H82 25.9054 117.998 172.977 H 0 **** 0.053
47053 H83 29.3573 120.575 169.932 H 0 **** 0.1268
47054 H84 24.0325 119.2 172.124 H 0 **** 0.1268
47055 H85 23.2447 123.185 170.869 H 0 **** 0.1268
47056 H86 27.3939 124.698 168.944 H 0 **** 0.1268
47057 H87 28.9568 122.802 169.202 H 0 **** 0.1268
47058 H88 27.8354 108.849 175.717 H 0 **** 0.41
47059 H89 31.2224 108.19 175.506 H 0 **** 0.053
47060 H90 32.489 108.988 174.574 H 0 **** 0.053
47061 H91 31.3092 107.931 173.751 H 0 **** 0.053
47062 H92 25.8706 115.925 172.949 H 0 **** 0.41
47063 H93 21.6786 120.037 171.708 H 0 **** 0.053
47064 H94 20.123 121.917 172.211 H 0 **** 0.053
47065 H95 21.0074 122.253 170.702 H 0 **** 0.053
47066 H96 21.4751 123.07 172.227 H 0 **** 0.053
47067 H97 29.0687 122.779 167.173 H 0 **** 0.41
47068 H98 35.5958 117.66 168.498 H 0 **** 0.41
47069 H99 24.0854 124.63 170.034 H 0 **** 0.41
47070 H100 30.9945 119.856 170.289 H 0 **** 0.053
47071 H101 34.28 117.784 170.331 H 0 **** 0.053
47072 H102 22.1583 120.847 173.2 H 0 **** 0.053
47073 C1 22.6904 177.128 149.381 C.ar 0 **** 0.042
47074 C2 21.4844 177.087 148.707 C.ar 0 **** -0.1268
47075 C3 21.4496 176.997 147.325 C.ar 0 **** 0
47076 C4 22.6278 176.948 146.578 C.ar 0 **** 0
47077 C5 23.8423 176.975 147.271 C.ar 0 **** -0.1268
47078 C6 23.8875 177.077 148.654 C.ar 0 **** 0
47079 C7 22.2458 176.87 145.176 C.ar 0 **** 0
47080 C8 20.8638 176.849 145.117 C.ar 0 **** 0
47081 C9 20.2268 176.937 146.461 C.3 0 **** -0.106
47082 C10 20.2225 176.755 143.886 C.ar 0 **** 0
47083 C11 20.9667 176.671 142.69 C.ar 0 **** 0
47084 C12 22.3828 176.704 142.813 C.ar 0 **** 0
47085 C13 23.0257 176.824 144.049 C.ar 0 **** 0
47086 C14 24.5201 176.861 144.125 C.3 0 **** -0.106
47087 C15 25.1311 177.498 142.881 C.3 0 **** -0.106
47088 C16 24.7172 176.674 141.69 C.3 0 **** -0.106
47089 C17 23.2119 176.618 141.532 C.ar 0 **** 0
47090 C18 22.6458 176.482 140.305 C.ar 0 **** 0
47091 C19 21.2872 176.424 140.169 C.ar 0 **** 0
47092 C20 20.3199 176.561 141.41 C.ar 0 **** 0
47093 C21 18.8686 176.611 141.406 C.ar 0 **** 0
47094 C22 18.2176 176.664 142.644 C.ar 0 **** 0
47095 C23 18.8386 176.742 143.841 C.ar 0 **** 0.042
47096 C24 20.6858 176.233 138.785 C.3 0 **** -0.106
47097 C25 21.6758 175.866 137.642 C.ar 0 **** 0
47098 C26 23.0316 175.97 137.833 C.ar 0 **** 0
47099 C27 23.6232 176.398 139.136 C.3 0 **** -0.106
47100 C28 23.9161 175.693 136.793 C.ar 0 **** 0.042
47101 C29 23.4761 175.321 135.535 C.ar 0 **** 0
47102 C30 22.1045 175.211 135.363 C.ar 0 **** 0
47103 C31 21.2036 175.477 136.391 C.ar 0 **** 0
47104 C32 21.4947 174.8 134.015 C.ar 0 **** 0
47105 C33 22.529 174.533 132.921 C.3 0 **** -0.106
47106 C34 23.7917 175.376 133.075 C.3 0 **** -0.106
47107 C35 24.4411 175.023 134.412 C.3 0 **** -0.106
47108 C36 19.7255 175.323 136.094 C.ar 0 **** -0.1268
47109 C37 19.3125 174.95 134.854 C.ar 0 **** 0.0265
47110 C38 20.1537 174.696 133.842 C.ar 0 **** -0.1268
47111 C39 16.7345 176.665 142.622 C.3 0 **** -0.106
47112 C40 16.56 176.659 141.138 C.ar 0 **** 0
47113 C41 17.7697 176.626 140.442 C.ar 0 **** 0
47114 C42 17.6608 176.668 139.036 C.ar 0 **** -0.1268
47115 C43 16.4098 176.694 138.385 C.ar 0 **** 0
47116 C44 15.2075 176.706 139.124 C.ar 0 **** 0
47117 C45 15.2976 176.698 140.525 C.ar 0 **** 0
47118 C46 14.1072 176.743 141.283 C.ar 0 **** -0.1268
47119 C47 12.8513 176.79 140.697 C.ar 0 **** 0
47120 C48 12.7848 176.8 139.316 C.ar 0 **** -0.1268
47121 C49 13.9333 176.76 138.508 C.ar 0 **** 0
47122 C50 13.8676 176.781 137.104 C.ar 0 **** 0.042
47123 C51 15.0259 176.762 136.352 C.ar 0 **** -0.1268
47124 C52 16.273 176.728 136.97 C.ar 0 **** -0.1268
47125 O53 22.7287 177.216 150.752 O.3 0 **** -0.452
47126 C54 25.2235 177.103 149.38 C.3 0 **** -0.159
47127 O55 18.1094 176.808 144.968 O.3 0 **** -0.452
47128 C56 11.655 176.844 141.641 C.3 0 **** -0.106
47129 C57 10.3129 176.713 140.913 C.3 0 **** -0.159
47130 O58 17.9923 174.834 134.636 O.3 0 **** -0.4365
47131 O59 25.2723 175.78 136.952 O.3 0 **** -0.452
47132 O60 12.7209 176.827 136.398 O.3 0 **** -0.452
47133 H61 20.5115 177.12 149.249 H 0 **** 0.1268
47134 H62 24.8236 176.905 146.781 H 0 **** 0.1268
47135 H63 19.6186 177.849 146.601 H 0 **** 0.053
47136 H64 19.6233 176.049 146.723 H 0 **** 0.053
47137 H65 24.8753 177.42 144.984 H 0 **** 0.053
47138 H66 24.8999 175.83 144.211 H 0 **** 0.053
47139 H67 24.7923 178.558 142.788 H 0 **** 0.053
47140 H68 26.2572 177.537 142.968 H 0 **** 0.053
47141 H69 25.1903 177.105 140.798 H 0 **** 0.053
47142 H70 25.1191 175.652 141.801 H 0 **** 0.053
47143 H71 19.9304 175.422 138.847 H 0 **** 0.053
47144 H72 24.3905 175.668 139.413 H 0 **** 0.053
47145 H73 22.8027 173.462 132.963 H 0 **** 0.053
47146 H74 22.0395 174.707 131.954 H 0 **** 0.053
47147 H75 24.4838 175.168 132.25 H 0 **** 0.053
47148 H76 23.5461 176.446 133.031 H 0 **** 0.053
47149 H77 24.7036 173.957 134.436 H 0 **** 0.053
47150 H78 25.3593 175.584 134.546 H 0 **** 0.053
47151 H79 19.0335 175.504 136.894 H 0 **** 0.1268
47152 H80 19.799 174.394 132.869 H 0 **** 0.1268
47153 H81 16.2929 175.763 143.074 H 0 **** 0.053
47154 H82 16.2921 177.571 143.065 H 0 **** 0.053
47155 H83 18.4942 176.71 138.35 H 0 **** 0.1268
47156 H84 14.1645 176.739 142.387 H 0 **** 0.1268
47157 H85 11.8022 176.842 138.854 H 0 **** 0.1268
47158 H86 14.9986 176.784 135.25 H 0 **** 0.1268
47159 H87 17.2119 176.752 136.348 H 0 **** 0.1268
47160 H88 21.8364 177.237 151.071 H 0 **** 0.41
47161 H89 25.1669 177.724 150.282 H 0 **** 0.053
47162 H90 26.0238 177.52 148.753 H 0 **** 0.053
47163 H91 25.5158 176.086 149.688 H 0 **** 0.053
47164 H92 17.1847 176.788 144.765 H 0 **** 0.41
47165 H93 11.7315 176.036 142.376 H 0 **** 0.053
47166 H94 9.46468 176.744 141.625 H 0 **** 0.053
47167 H95 10.238 175.756 140.361 H 0 **** 0.053
47168 H96 10.1559 177.537 140.193 H 0 **** 0.053
47169 H97 17.5029 174.946 135.435 H 0 **** 0.41
47170 H98 25.4811 176.05 137.832 H 0 **** 0.41
47171 H99 11.9841 176.845 136.995 H 0 **** 0.41
47172 H100 20.242 177.209 138.5 H 0 **** 0.053
47173 H101 24.0878 177.384 139.018 H 0 **** 0.053
47174 H102 11.6659 177.79 142.195 H 0 **** 0.053
47175 C1 28.8087 183.974 125.49 C.ar 0 **** 0.042
47176 C2 28.2717 182.865 126.117 C.ar 0 **** -0.1268
47177 C3 28.1937 181.65 125.457 C.ar 0 **** 0
47178 C4 28.649 181.514 124.144 C.ar 0 **** 0
47179 C5 29.1983 182.639 123.523 C.ar 0 **** -0.1268
47180 C6 29.2719 183.861 124.172 C.ar 0 **** 0
47181 C7 28.4238 180.132 123.75 C.ar 0 **** 0
47182 C8 27.8576 179.475 124.829 C.ar 0 **** 0
47183 C9 27.6535 180.365 126.006 C.3 0 **** -0.106
47184 C10 27.5491 178.122 124.735 C.ar 0 **** 0
47185 C11 27.8089 177.405 123.548 C.ar 0 **** 0
47186 C12 28.3833 178.134 122.471 C.ar 0 **** 0
47187 C13 28.6816 179.498 122.56 C.ar 0 **** 0
47188 C14 29.2909 180.222 121.393 C.3 0 **** -0.106
47189 C15 28.8117 179.624 120.07 C.3 0 **** -0.106
47190 C16 29.2527 178.186 120.033 C.3 0 **** -0.106
47191 C17 28.6654 177.381 121.173 C.ar 0 **** 0
47192 C18 28.4251 176.052 121.033 C.ar 0 **** 0
47193 C19 27.9022 175.327 122.067 C.ar 0 **** 0
47194 C20 27.5074 176.003 123.439 C.ar 0 **** 0
47195 C21 26.8634 175.383 124.583 C.ar 0 **** 0
47196 C22 26.6747 176.166 125.727 C.ar 0 **** 0
47197 C23 26.9855 177.477 125.824 C.ar 0 **** 0.042
47198 C24 27.6822 173.832 121.891 C.3 0 **** -0.106
47199 C25 28.3042 173.181 120.621 C.ar 0 **** 0
47200 C26 28.7897 173.966 119.604 C.ar 0 **** 0
47201 C27 28.7831 175.458 119.674 C.3 0 **** -0.106
47202 C28 29.2977 173.385 118.444 C.ar 0 **** 0.042
47203 C29 29.3226 172.013 118.26 C.ar 0 **** 0
47204 C30 28.8391 171.237 119.302 C.ar 0 **** 0
47205 C31 28.3315 171.797 120.472 C.ar 0 **** 0
47206 C32 28.8217 169.702 119.219 C.ar 0 **** 0
47207 C33 29.3811 169.14 117.908 C.3 0 **** -0.106
47208 C34 29.152 170.075 116.722 C.3 0 **** -0.106
47209 C35 29.8746 171.391 117 C.3 0 **** -0.106
47210 C36 27.8286 170.856 121.548 C.ar 0 **** -0.1268
47211 C37 27.866 169.512 121.351 C.ar 0 **** 0.0265
47212 C38 28.3397 168.942 120.234 C.ar 0 **** -0.1268
47213 C39 26.0591 175.502 126.902 C.3 0 **** -0.106
47214 C40 25.8375 174.164 126.276 C.ar 0 **** 0
47215 C41 26.2953 174.09 124.959 C.ar 0 **** 0
47216 C42 26.0661 172.861 124.306 C.ar 0 **** -0.1268
47217 C43 25.4571 171.771 124.962 C.ar 0 **** 0
47218 C44 25.0255 171.877 126.301 C.ar 0 **** 0
47219 C45 25.2156 173.104 126.956 C.ar 0 **** 0
47220 C46 24.763 173.243 128.287 C.ar 0 **** -0.1268
47221 C47 24.1418 172.21 128.972 C.ar 0 **** 0
47222 C48 23.9596 171.012 128.306 C.ar 0 **** -0.1268
47223 C49 24.3892 170.814 126.985 C.ar 0 **** 0
47224 C50 24.2071 169.599 126.302 C.ar 0 **** 0.042
47225 C51 24.6178 169.461 124.992 C.ar 0 **** -0.1268
47226 C52 25.2236 170.521 124.325 C.ar 0 **** -0.1268
47227 O53 28.9019 185.179 126.143 O.3 0 **** -0.452
47228 C54 29.8768 185.066 123.474 C.3 0 **** -0.159
47229 O55 26.7418 178.137 126.969 O.3 0 **** -0.452
47230 C56 23.696 172.503 130.4 C.3 0 **** -0.106
47231 C57 23.1839 171.257 131.133 C.3 0 **** -0.159
47232 O58 27.4018 168.718 122.33 O.3 0 **** -0.4365
47233 O59 29.7955 174.137 117.416 O.3 0 **** -0.452
47234 O60 23.6385 168.504 126.833 O.3 0 **** -0.452
47235 H61 27.8967 182.913 127.164 H 0 **** 0.1268
47236 H62 29.6126 182.631 122.505 H 0 **** 0.1268
47237 H63 26.5921 180.489 126.287 H 0 **** 0.053
47238 H64 28.2356 180.062 126.896 H 0 **** 0.053
47239 H65 29.0117 181.271 121.38 H 0 **** 0.053
47240 H66 30.4009 180.158 121.428 H 0 **** 0.053
47241 H67 27.7022 179.719 119.978 H 0 **** 0.053
47242 H68 29.2456 180.198 119.199 H 0 **** 0.053
47243 H69 28.9635 177.765 119.062 H 0 **** 0.053
47244 H70 30.3555 178.152 120.08 H 0 **** 0.053
47245 H71 28.1105 173.315 122.776 H 0 **** 0.053
47246 H72 29.7896 175.81 119.426 H 0 **** 0.053
47247 H73 30.4691 168.965 118.034 H 0 **** 0.053
47248 H74 28.9172 168.158 117.743 H 0 **** 0.053
47249 H75 29.5373 169.615 115.804 H 0 **** 0.053
47250 H76 28.0765 170.246 116.571 H 0 **** 0.053
47251 H77 30.9506 171.212 117.13 H 0 **** 0.053
47252 H78 29.7589 172.07 116.163 H 0 **** 0.053
47253 H79 27.4621 171.289 122.459 H 0 **** 0.1268
47254 H80 28.3644 167.871 120.108 H 0 **** 0.1268
47255 H81 26.7392 175.425 127.764 H 0 **** 0.053
47256 H82 25.1019 175.954 127.207 H 0 **** 0.053
47257 H83 26.3012 172.651 123.273 H 0 **** 0.1268
47258 H84 24.9046 174.204 128.814 H 0 **** 0.1268
47259 H85 23.4646 170.207 128.841 H 0 **** 0.1268
47260 H86 24.4702 168.519 124.44 H 0 **** 0.1268
47261 H87 25.5251 170.408 123.246 H 0 **** 0.1268
47262 H88 28.5187 185.08 127.003 H 0 **** 0.41
47263 H89 29.3819 185.983 123.808 H 0 **** 0.053
47264 H90 29.7601 185.012 122.383 H 0 **** 0.053
47265 H91 30.9491 185.157 123.708 H 0 **** 0.053
47266 H92 26.3567 177.555 127.61 H 0 **** 0.41
47267 H93 24.5327 172.924 130.967 H 0 **** 0.053
47268 H94 22.8776 171.49 132.171 H 0 **** 0.053
47269 H95 23.962 170.474 131.2 H 0 **** 0.053
47270 H96 22.2973 170.826 130.634 H 0 **** 0.053
47271 H97 27.1817 169.218 123.1 H 0 **** 0.41
47272 H98 29.7279 175.056 117.622 H 0 **** 0.41
47273 H99 23.3455 168.694 127.715 H 0 **** 0.41
47274 H100 26.5864 173.686 121.8 H 0 **** 0.053
47275 H101 28.0714 175.853 118.939 H 0 **** 0.053
47276 H102 22.9019 173.257 130.381 H 0 **** 0.053
47277 C1 52.7982 166.876 146.598 C.ar 0 **** 0.042
47278 C2 52.0598 167.965 147.023 C.ar 0 **** -0.1268
47279 C3 52.679 169.047 147.626 C.ar 0 **** 0
47280 C4 54.0606 169.067 147.822 C.ar 0 **** 0
47281 C5 54.7997 167.966 147.377 C.ar 0 **** -0.1268
47282 C6 54.1877 166.873 146.783 C.ar 0 **** 0
47283 C7 54.3854 170.325 148.476 C.ar 0 **** 0
47284 C8 53.2057 171.029 148.643 C.ar 0 **** 0
47285 C9 52.0162 170.293 148.129 C.3 0 **** -0.106
47286 C10 53.2238 172.288 149.233 C.ar 0 **** 0
47287 C11 54.4373 172.862 149.666 C.ar 0 **** 0
47288 C12 55.6158 172.09 149.477 C.ar 0 **** 0
47289 C13 55.5961 170.817 148.895 C.ar 0 **** 0
47290 C14 56.8716 170.043 148.717 C.3 0 **** -0.106
47291 C15 57.8663 170.363 149.832 C.3 0 **** -0.106
47292 C16 58.1774 171.833 149.758 C.3 0 **** -0.106
47293 C17 56.9414 172.687 149.946 C.ar 0 **** 0
47294 C18 57.0301 173.928 150.491 C.ar 0 **** 0
47295 C19 55.913 174.698 150.653 C.ar 0 **** 0
47296 C20 54.476 174.169 150.267 C.ar 0 **** 0
47297 C21 53.2006 174.833 150.467 C.ar 0 **** 0
47298 C22 52.0535 174.2 149.977 C.ar 0 **** 0
47299 C23 52.035 172.982 149.391 C.ar 0 **** 0.042
47300 C24 56.0525 176.099 151.23 C.3 0 **** -0.106
47301 C25 57.5003 176.654 151.367 C.ar 0 **** 0
47302 C26 58.582 175.822 151.219 C.ar 0 **** 0
47303 C27 58.4353 174.373 150.887 C.3 0 **** -0.106
47304 C28 59.8763 176.307 151.394 C.ar 0 **** 0.042
47305 C29 60.127 177.625 151.734 C.ar 0 **** 0
47306 C30 59.0235 178.453 151.868 C.ar 0 **** 0
47307 C31 57.7221 177.99 151.693 C.ar 0 **** 0
47308 C32 59.1741 179.938 152.236 C.ar 0 **** 0
47309 C33 60.625 180.391 152.427 C.3 0 **** -0.106
47310 C34 61.5262 179.274 152.949 C.3 0 **** -0.106
47311 C35 61.5327 178.143 151.923 C.3 0 **** -0.106
47312 C36 56.5887 178.981 151.863 C.ar 0 **** -0.1268
47313 C37 56.8543 180.272 152.193 C.ar 0 **** 0.0265
47314 C38 58.0944 180.747 152.377 C.ar 0 **** -0.1268
47315 C39 50.7658 174.916 150.147 C.3 0 **** -0.106
47316 C40 51.2984 176.099 150.89 C.ar 0 **** 0
47317 C41 52.6819 176.059 151.071 C.ar 0 **** 0
47318 C42 53.2262 177.132 151.808 C.ar 0 **** -0.1268
47319 C43 52.429 178.193 152.285 C.ar 0 **** 0
47320 C44 51.0368 178.209 152.064 C.ar 0 **** 0
47321 C45 50.4728 177.132 151.36 C.ar 0 **** 0
47322 C46 49.0786 177.12 151.146 C.ar 0 **** -0.1268
47323 C47 48.2533 178.14 151.59 C.ar 0 **** 0
47324 C48 48.8196 179.177 152.301 C.ar 0 **** -0.1268
47325 C49 50.199 179.243 152.548 C.ar 0 **** 0
47326 C50 50.7819 180.304 153.264 C.ar 0 **** 0.042
47327 C51 52.1434 180.322 153.489 C.ar 0 **** -0.1268
47328 C52 52.9538 179.29 153.022 C.ar 0 **** -0.1268
47329 O53 52.188 165.801 145.996 O.3 0 **** -0.452
47330 C54 55.0188 165.691 146.307 C.3 0 **** -0.159
47331 O55 50.8685 172.461 148.973 O.3 0 **** -0.452
47332 C56 46.7763 177.984 151.307 C.3 0 **** -0.106
47333 C57 45.9336 179.195 151.709 C.3 0 **** -0.159
47334 O58 55.8163 181.112 152.342 O.3 0 **** -0.4365
47335 O59 60.9759 175.506 151.246 O.3 0 **** -0.452
47336 O60 50.0931 181.344 153.771 O.3 0 **** -0.452
47337 H61 50.9543 168.007 146.89 H 0 **** 0.1268
47338 H62 55.8932 167.896 147.456 H 0 **** 0.1268
47339 H63 51.28 170.042 148.914 H 0 **** 0.053
47340 H64 51.5028 170.809 147.296 H 0 **** 0.053
47341 H65 56.6987 168.971 148.751 H 0 **** 0.053
47342 H66 57.3451 170.287 147.74 H 0 **** 0.053
47343 H67 57.4417 170.08 150.826 H 0 **** 0.053
47344 H68 58.8062 169.748 149.71 H 0 **** 0.053
47345 H69 58.9344 172.061 150.518 H 0 **** 0.053
47346 H70 58.6357 172.049 148.776 H 0 **** 0.053
47347 H71 55.487 176.798 150.578 H 0 **** 0.053
47348 H72 59.0907 174.154 150.038 H 0 **** 0.053
47349 H73 61.0142 180.754 151.454 H 0 **** 0.053
47350 H74 60.6168 181.253 153.108 H 0 **** 0.053
47351 H75 62.5436 179.654 153.102 H 0 **** 0.053
47352 H76 61.1659 178.914 153.923 H 0 **** 0.053
47353 H77 61.9134 178.508 150.96 H 0 **** 0.053
47354 H78 62.1886 177.342 152.247 H 0 **** 0.053
47355 H79 55.5881 178.629 151.702 H 0 **** 0.1268
47356 H80 58.277 181.779 152.63 H 0 **** 0.1268
47357 H81 50.3091 175.222 149.192 H 0 **** 0.053
47358 H82 50.0357 174.364 150.76 H 0 **** 0.053
47359 H83 54.2643 177.228 152.089 H 0 **** 0.1268
47360 H84 48.6166 176.276 150.6 H 0 **** 0.1268
47361 H85 48.1637 179.962 152.671 H 0 **** 0.1268
47362 H86 52.6215 181.141 154.048 H 0 **** 0.1268
47363 H87 54.0574 179.297 153.244 H 0 **** 0.1268
47364 H88 51.2571 165.975 145.96 H 0 **** 0.41
47365 H89 54.4605 164.753 146.409 H 0 **** 0.053
47366 H90 55.9437 165.578 146.89 H 0 **** 0.053
47367 H91 55.288 165.81 145.245 H 0 **** 0.053
47368 H92 50.1535 173.055 149.154 H 0 **** 0.41
47369 H93 46.6061 177.764 150.252 H 0 **** 0.053
47370 H94 44.8603 179.045 151.478 H 0 **** 0.053
47371 H95 46.2538 180.104 151.163 H 0 **** 0.053
47372 H96 45.9986 179.406 152.793 H 0 **** 0.053
47373 H97 55.005 180.699 152.093 H 0 **** 0.41
47374 H98 60.7119 174.626 151.029 H 0 **** 0.41
47375 H99 49.1728 181.248 153.561 H 0 **** 0.41
47376 H100 55.647 176.054 152.261 H 0 **** 0.053
47377 H101 58.7463 173.769 151.748 H 0 **** 0.053
47378 H102 46.471 177.112 151.884 H 0 **** 0.053
47379 C1 67.5694 140.446 119.849 C.ar 0 **** 0.042
47380 C2 68.0919 139.356 119.177 C.ar 0 **** -0.1268
47381 C3 69.445 139.067 119.243 C.ar 0 **** 0
47382 C4 70.3147 139.867 119.987 C.ar 0 **** 0
47383 C5 69.7741 140.958 120.673 C.ar 0 **** -0.1268
47384 C6 68.4229 141.263 120.603 C.ar 0 **** 0
47385 C7 71.6476 139.301 119.844 C.ar 0 **** 0
47386 C8 71.5452 138.18 119.04 C.ar 0 **** 0
47387 C9 70.1512 137.925 118.579 C.3 0 **** -0.106
47388 C10 72.6769 137.426 118.748 C.ar 0 **** 0
47389 C11 73.9373 137.79 119.267 C.ar 0 **** 0
47390 C12 73.9834 138.956 120.08 C.ar 0 **** 0
47391 C13 72.847 139.722 120.362 C.ar 0 **** 0
47392 C14 72.9501 140.945 121.23 C.3 0 **** -0.106
47393 C15 74.3114 141.62 121.062 C.3 0 **** -0.106
47394 C16 75.3652 140.634 121.487 C.3 0 **** -0.106
47395 C17 75.339 139.375 120.646 C.ar 0 **** 0
47396 C18 76.4721 138.658 120.433 C.ar 0 **** 0
47397 C19 76.4425 137.518 119.679 C.ar 0 **** 0
47398 C20 75.1157 137.015 118.986 C.ar 0 **** 0
47399 C21 74.9546 135.883 118.09 C.ar 0 **** 0
47400 C22 73.661 135.581 117.652 C.ar 0 **** 0
47401 C23 72.5578 136.304 117.945 C.ar 0 **** 0.042
47402 C24 77.7223 136.717 119.492 C.3 0 **** -0.106
47403 C25 78.9328 137.12 120.384 C.ar 0 **** 0
47404 C26 78.9113 138.294 121.097 C.ar 0 **** 0
47405 C27 77.7338 139.213 121.088 C.3 0 **** -0.106
47406 C28 80.0157 138.681 121.853 C.ar 0 **** 0.042
47407 C29 81.1718 137.922 121.907 C.ar 0 **** 0
47408 C30 81.1706 136.736 121.19 C.ar 0 **** 0
47409 C31 80.076 136.327 120.432 C.ar 0 **** 0
47410 C32 82.3929 135.803 121.179 C.ar 0 **** 0
47411 C33 83.571 136.306 122.019 C.3 0 **** -0.106
47412 C34 83.6446 137.83 122.077 C.3 0 **** -0.106
47413 C35 82.3648 138.349 122.728 C.3 0 **** -0.106
47414 C36 80.1817 135.012 119.687 C.ar 0 **** -0.1268
47415 C37 81.323 134.278 119.756 C.ar 0 **** 0.0265
47416 C38 82.3962 134.647 120.469 C.ar 0 **** -0.1268
47417 C39 73.5093 134.392 116.777 C.3 0 **** -0.106
47418 C40 74.9549 134.025 116.693 C.ar 0 **** 0
47419 C41 75.7811 134.867 117.439 C.ar 0 **** 0
47420 C42 77.1618 134.591 117.354 C.ar 0 **** -0.1268
47421 C43 77.6614 133.508 116.602 C.ar 0 **** 0
47422 C44 76.792 132.666 115.876 C.ar 0 **** 0
47423 C45 75.4169 132.946 115.922 C.ar 0 **** 0
47424 C46 74.533 132.135 115.177 C.ar 0 **** -0.1268
47425 C47 74.9693 131.07 114.404 C.ar 0 **** 0
47426 C48 76.3278 130.814 114.369 C.ar 0 **** -0.1268
47427 C49 77.2569 131.586 115.087 C.ar 0 **** 0
47428 C50 78.6398 131.334 115.043 C.ar 0 **** 0.042
47429 C51 79.5162 132.134 115.749 C.ar 0 **** -0.1268
47430 C52 79.0476 133.204 116.507 C.ar 0 **** -0.1268
47431 O53 66.227 140.735 119.789 O.3 0 **** -0.452
47432 C54 67.8634 142.455 121.364 C.3 0 **** -0.159
47433 O55 71.3645 135.929 117.453 O.3 0 **** -0.452
47434 C56 73.9017 130.289 113.646 C.3 0 **** -0.106
47435 C57 74.4528 129.031 112.966 C.3 0 **** -0.159
47436 O58 81.3731 133.123 119.071 O.3 0 **** -0.4365
47437 O59 80.0244 139.84 122.58 O.3 0 **** -0.452
47438 O60 79.209 130.339 114.335 O.3 0 **** -0.452
47439 H61 67.4457 138.68 118.571 H 0 **** 0.1268
47440 H62 70.3659 141.63 121.31 H 0 **** 0.1268
47441 H63 70.0302 137.99 117.482 H 0 **** 0.053
47442 H64 69.7352 136.965 118.937 H 0 **** 0.053
47443 H65 72.1995 141.686 120.971 H 0 **** 0.053
47444 H66 72.818 140.677 122.302 H 0 **** 0.053
47445 H67 74.4553 141.95 120.005 H 0 **** 0.053
47446 H68 74.3646 142.559 121.69 H 0 **** 0.053
47447 H69 76.3419 141.13 121.425 H 0 **** 0.053
47448 H70 75.2043 140.379 122.549 H 0 **** 0.053
47449 H71 77.4941 135.65 119.701 H 0 **** 0.053
47450 H72 77.4793 139.443 122.128 H 0 **** 0.053
47451 H73 83.4694 135.903 123.048 H 0 **** 0.053
47452 H74 84.4888 135.873 121.597 H 0 **** 0.053
47453 H75 84.5211 138.141 122.659 H 0 **** 0.053
47454 H76 83.7638 138.247 121.067 H 0 **** 0.053
47455 H77 82.2656 137.943 123.744 H 0 **** 0.053
47456 H78 82.3953 139.43 122.814 H 0 **** 0.053
47457 H79 79.3277 134.686 119.125 H 0 **** 0.1268
47458 H80 83.2869 134.04 120.513 H 0 **** 0.1268
47459 H81 72.9232 133.583 117.24 H 0 **** 0.053
47460 H82 73.1082 134.634 115.779 H 0 **** 0.053
47461 H83 77.9415 135.177 117.819 H 0 **** 0.1268
47462 H84 73.4482 132.347 115.202 H 0 **** 0.1268
47463 H85 76.6754 129.984 113.759 H 0 **** 0.1268
47464 H86 80.6043 131.958 115.727 H 0 **** 0.1268
47465 H87 79.7744 133.874 117.048 H 0 **** 0.1268
47466 H88 65.8105 140.084 119.24 H 0 **** 0.41
47467 H89 67.0263 142.908 120.82 H 0 **** 0.053
47468 H90 68.6168 143.243 121.506 H 0 **** 0.053
47469 H91 67.4939 142.144 122.354 H 0 **** 0.053
47470 H92 71.4552 135.151 116.919 H 0 **** 0.41
47471 H93 73.1048 129.991 114.335 H 0 **** 0.053
47472 H94 73.6535 128.48 112.432 H 0 **** 0.053
47473 H95 74.8978 128.331 113.698 H 0 **** 0.053
47474 H96 75.2259 129.277 112.214 H 0 **** 0.053
47475 H97 80.5351 132.916 118.689 H 0 **** 0.41
47476 H98 79.2053 140.297 122.475 H 0 **** 0.41
47477 H99 78.534 129.847 113.885 H 0 **** 0.41
47478 H100 78.0471 136.887 118.445 H 0 **** 0.053
47479 H101 78.0006 140.14 120.568 H 0 **** 0.053
47480 H102 73.4486 130.932 112.883 H 0 **** 0.053
47481 C 13.8768 126.178 176.004 C.3 0 **** 0.054
47482 C 14.8343 125.514 174.973 C.3 0 **** -0.106
47483 C 16.3068 125.947 175.217 C.3 0 **** -0.053
47484 C 16.3196 127.45 175.585 C.3 0 **** -0.053
47485 C 15.4352 127.7 176.843 C.3 0 **** 0.054
47486 O 14.5889 126.603 177.155 O.3 0 **** -0.32
47487 C 15.8559 128.321 174.38 C.3 0 **** -0.053
47488 C 16.3556 127.756 172.995 C.3 0 **** 0.107
47489 C 17.576 126.865 173.192 C.3 0 **** -0.106
47490 C 17.249 125.619 174.032 C.3 0 **** -0.106
47491 O 16.7194 128.764 172.046 O.3 0 **** -0.32
47492 C 15.779 129.827 172.059 C.3 0 **** 0.107
47493 C 16.0623 130.675 173.327 C.3 0 **** -0.053
47494 C 16.3039 129.784 174.572 C.3 0 **** -0.106
47495 C 15.0431 131.745 173.624 C.2 0 **** 0
47496 C 13.6046 131.411 173.255 C.3 0 **** 0
47497 C 13.4216 130.558 172.001 C.3 0 **** 0
47498 C 14.3415 129.351 171.859 C.3 0 **** -0.053
47499 C 11.979 130.229 171.671 C.3 0 **** 0
47500 C 11.1402 131.5 171.59 C.3 0 **** 0
47501 C 11.2988 132.292 172.941 C.3 0 **** 0.16
47502 C 12.7367 132.653 173.243 C.3 0 **** 0
47503 C 12.8981 133.577 174.481 C.3 0 **** -0.106
47504 C 14.3307 134.08 174.384 C.3 0 **** -0.106
47505 C 15.3376 132.96 174.145 C.2 0 **** -0.1268
47506 O 10.3751 133.356 173.263 O.3 0 **** -0.32
47507 C 9.44418 133.591 172.228 C.3 0 **** 0.16
47508 C 8.72712 132.331 171.639 C.3 0 **** 0
47509 C 9.65825 131.136 171.311 C.3 0 **** 0
47510 C 14.0873 128.691 170.528 C.2 0 **** 0
47511 C 12.7188 128.074 170.462 C.3 0 **** -0.053
47512 C 11.7848 129.318 170.447 C.3 0 **** 0
47513 C 12.384 127.243 169.243 C.2 0 **** 0
47514 C 13.1704 127.38 168.143 C.2 0 **** 0
47515 C 14.4615 128.185 168.122 C.3 0 **** -0.106
47516 C 14.8858 128.749 169.469 C.2 0 **** -0.1268
47517 C 12.9145 126.56 166.9 C.3 0 **** -0.106
47518 C 11.4158 126.356 166.732 C.3 0 **** -0.106
47519 C 10.8225 125.908 168.057 C.2 0 **** 0
47520 C 11.3379 126.356 169.247 C.2 0 **** 0
47521 C 10.6811 125.934 170.548 C.3 0 **** -0.106
47522 C 9.76856 124.724 170.41 C.3 0 **** -0.053
47523 C 8.7931 124.95 169.243 C.3 0 **** -0.106
47524 C 9.5788 125.054 167.931 C.3 0 **** -0.106
47525 C 9.54788 130.375 169.983 C.3 0 **** 0.147
47526 C 10.2913 129.054 170.113 C.3 0 **** -0.053
47527 C 7.66995 132.632 170.571 C.3 0 **** 0
47528 C 6.96971 131.421 169.942 C.3 0 **** 0.147
47529 S 7.87823 130.005 169.37 S.3 0 **** -0.294
47530 C 5.85165 131.755 168.993 C.3 0 **** -0.053
47531 C 4.85872 132.683 169.705 C.3 0 **** 0
47532 C 5.55897 133.985 170.253 C.3 0 **** 0
47533 C 6.6659 133.601 171.256 C.3 0 **** 0
47534 C 4.51192 134.854 170.935 C.3 0 **** 0
47535 C 3.43308 135.222 169.936 C.3 0 **** 0
47536 C 2.7126 133.963 169.295 C.3 0 **** 0
47537 C 3.79388 133.041 168.621 C.3 0 **** -0.053
47538 C 1.73418 134.494 168.21 C.3 0 **** 0
47539 C 0.6284 135.227 168.937 C.3 0 **** 0.16
47540 C 1.14595 136.365 169.823 C.3 0 **** 0
47541 C 2.52784 136.326 170.408 C.3 0 **** 0
47542 C 7.33603 134.81 171.961 C.3 0 **** 0
47543 C 8.41492 134.411 172.963 C.3 0 **** -0.053
47544 C 5.01473 135.975 171.871 C.3 0 **** 0
47545 C 6.50003 136.093 172.221 C.3 0 **** 0
47546 C 2.81935 137.128 171.677 C.3 0 **** 0
47547 C 4.33698 137.347 171.821 C.3 0 **** 0
47548 C 0.284844 137.601 170.084 C.3 0 **** 0
47549 C 0.683607 138.326 171.408 C.3 0 **** 0
47550 C 2.19744 138.545 171.585 C.3 0 **** 0
47551 O -0.362426 135.58 167.996 O.3 0 **** -0.32
47552 C -1.17699 134.409 167.958 C.3 0 **** 0.107
47553 C -0.303749 133.15 167.652 C.3 0 **** -0.053
47554 C 1.07648 133.573 167.154 C.3 0 **** 0.107
47555 C -1.00108 132.244 166.627 C.3 0 **** -0.106
47556 C -2.51225 132.186 166.917 C.3 0 **** -0.106
47557 C -3.17207 133.542 166.6 C.3 0 **** 0.134
47558 C -2.22423 134.73 166.913 C.3 0 **** -0.053
47559 C -3.00016 136.008 167.319 C.3 0 **** -0.106
47560 C -4.30289 136.092 166.534 C.3 0 **** -0.106
47561 C -5.19653 134.845 166.814 C.3 0 **** 0.081
47562 N -4.45548 133.667 167.261 N.3 0 **** -0.727
47563 C 6.74748 136.92 173.511 C.3 0 **** 0.16
47564 C 6.11501 138.292 173.345 C.3 0 **** 0.16
47565 C 4.63238 138.109 173.191 C.3 0 **** 0
47566 O 6.3817 139.198 174.394 O.3 0 **** -0.32
47567 C 7.77851 139.219 174.667 C.3 0 **** 0.107
47568 C 8.22506 137.839 175.042 C.3 0 **** 0.107
47569 O 8.11307 137.033 173.881 O.3 0 **** -0.32
47570 C 7.40981 137.257 176.225 C.3 0 **** -0.106
47571 C 6.86852 138.376 177.161 C.3 0 **** -0.106
47572 C 7.83991 139.573 177.172 C.3 0 **** -0.106
47573 C 7.97515 140.229 175.769 C.3 0 **** -0.106
47574 C 2.47023 139.364 172.925 C.3 0 **** 0
47575 C 4.01299 139.542 173.094 C.3 0 **** -0.053
47576 C 0.0241619 139.715 171.42 C.3 0 **** 0
47577 C 0.383022 140.526 172.681 C.3 0 **** 0.16
47578 C 1.82966 140.739 172.896 C.3 0 **** -0.053
47579 C -1.53059 139.452 171.33 C.3 0 **** 0
47580 C -1.884 138.668 170.001 C.3 0 **** 0
47581 C -1.23484 137.281 170.123 C.3 0 **** -0.053
47582 O -0.254161 141.754 172.813 O.3 0 **** -0.32
47583 C -1.64111 141.593 172.538 C.3 0 **** 0.16
47584 C -2.05882 140.876 171.186 C.3 0 **** 0
47585 C -3.40229 138.52 169.703 C.3 0 **** -0.053
47586 C -4.07945 139.882 169.846 C.3 0 **** -0.053
47587 C -3.58171 140.729 171.076 C.3 0 **** 0
47588 C -5.53202 139.711 170.134 C.3 0 **** -0.053
47589 C -6.10842 138.578 169.326 C.3 0 **** -0.106
47590 C -5.52231 137.243 169.867 C.3 0 **** -0.106
47591 C -4.14445 137.448 170.53 C.3 0 **** -0.106
47592 C -4.15665 142.124 170.995 C.3 0 **** 0
47593 C -3.68897 143.054 172.153 C.3 0 **** 0
47594 C -2.2267 142.978 172.585 C.3 0 **** 0
47595 C -6.10211 141.078 169.765 C.3 0 **** 0
47596 C -5.65916 142.109 170.82 C.3 0 **** 0
47597 C 9.07789 124.366 171.752 C.3 0 **** -0.053
47598 C 7.95961 125.347 172.134 C.3 0 **** -0.159
47599 C 8.53848 122.931 171.736 C.3 0 **** -0.159
47600 O 1.84343 132.44 166.769 O.3 0 **** -0.57
47601 C -1.52939 144.13 173.362 C.3 0 **** -0.053
47602 C -2.46009 145.202 173.937 C.3 0 **** -0.053
47603 C -3.55598 145.558 172.916 C.3 0 **** 0
47604 C -4.42571 144.341 172.473 C.3 0 **** 0
47605 C -5.66451 144.541 171.618 C.3 0 **** 0
47606 C -6.30471 145.897 171.657 C.3 0 **** 0
47607 C -5.69049 146.947 172.616 C.3 0 **** 0
47608 C -4.46603 146.638 173.511 C.3 0 **** -0.053
47609 C -6.43807 148.253 172.848 C.3 0 **** -0.053
47610 C -7.87082 148.384 172.286 C.3 0 **** -0.053
47611 C -8.30222 147.404 171.152 C.3 0 **** 0
47612 C -7.82547 145.943 171.369 C.3 0 **** 0
47613 C -8.19004 145.014 170.146 C.3 0 **** 0
47614 C -7.68885 143.544 170.408 C.3 0 **** 0
47615 C -6.15645 143.523 170.582 C.3 0 **** 0
47616 C -9.73742 145.041 169.935 C.3 0 **** 0
47617 C -10.1839 146.53 169.689 C.3 0 **** -0.053
47618 C -9.81571 147.445 170.874 C.3 0 **** -0.053
47619 C -7.63384 141.109 169.585 C.3 0 **** -0.053
47620 C -8.01142 142.605 169.177 C.3 0 **** 0
47621 C -10.1207 144.131 168.68 C.3 0 **** 0.02
47622 C -9.54712 142.678 168.824 C.3 0 **** 0
47623 C -9.91404 141.627 167.749 C.3 0 **** -0.106
47624 C -10.837 142.244 166.736 C.3 0 **** -0.106
47625 C -11.9889 142.954 167.439 C.3 0 **** -0.086
47626 C -11.6158 144.03 168.391 C.2 0 **** 0.379
47627 O -12.4666 144.795 168.812 O.2 0 **** -0.419
47628 H 13.1155 125.465 176.349 H 0 **** 0.053
47629 H 13.3314 127.017 175.545 H 0 **** 0.053
47630 H 14.7764 124.408 175.014 H 0 **** 0.053
47631 H 14.5233 125.779 173.946 H 0 **** 0.053
47632 H 16.6518 125.394 176.106 H 0 **** 0.053
47633 H 17.365 127.739 175.799 H 0 **** 0.053
47634 H 14.8406 128.624 176.735 H 0 **** 0.053
47635 H 16.0688 127.844 177.725 H 0 **** 0.053
47636 H 14.7524 128.311 174.402 H 0 **** 0.053
47637 H 15.5653 127.122 172.553 H 0 **** 0.053
47638 H 18.3589 127.474 173.682 H 0 **** 0.053
47639 H 17.9741 126.587 172.204 H 0 **** 0.053
47640 H 18.1836 125.175 174.402 H 0 **** 0.053
47641 H 16.781 124.863 173.385 H 0 **** 0.053
47642 H 16.0377 130.47 171.216 H 0 **** 0.053
47643 H 16.9995 131.21 173.138 H 0 **** 0.053
47644 H 15.8527 130.197 175.501 H 0 **** 0.053
47645 H 17.3936 129.761 174.75 H 0 **** 0.053
47646 H 14.0435 128.62 172.625 H 0 **** 0.053
47647 H 12.1745 134.415 174.426 H 0 **** 0.053
47648 H 12.6914 133.029 175.424 H 0 **** 0.053
47649 H 14.6 134.66 175.27 H 0 **** 0.053
47650 H 14.3879 134.761 173.515 H 0 **** 0.053
47651 H 16.3526 133.204 174.442 H 0 **** 0.1268
47652 H 12.5373 127.493 171.398 H 0 **** 0.053
47653 H 14.3817 129.029 167.373 H 0 **** 0.053
47654 H 15.2945 127.523 167.752 H 0 **** 0.053
47655 H 15.8608 129.226 169.504 H 0 **** 0.1268
47656 H 13.3637 127.032 165.999 H 0 **** 0.053
47657 H 13.4169 125.586 167.037 H 0 **** 0.053
47658 H 11.1993 125.628 165.925 H 0 **** 0.053
47659 H 10.9381 127.309 166.436 H 0 **** 0.053
47660 H 11.4701 125.686 171.274 H 0 **** 0.053
47661 H 10.1113 126.774 170.991 H 0 **** 0.053
47662 H 10.4136 123.862 170.143 H 0 **** 0.053
47663 H 8.23214 125.883 169.411 H 0 **** 0.053
47664 H 8.05098 124.142 169.168 H 0 **** 0.053
47665 H 8.91673 125.444 167.123 H 0 **** 0.053
47666 H 9.89068 124.034 167.613 H 0 **** 0.053
47667 H 10.1479 128.452 169.151 H 0 **** 0.053
47668 H 5.32948 130.871 168.518 H 0 **** 0.053
47669 H 3.30639 132.055 168.337 H 0 **** 0.053
47670 H 8.95511 135.279 173.441 H 0 **** 0.053
47671 H -1.66958 134.297 168.939 H 0 **** 0.053
47672 H -0.190996 132.548 168.577 H 0 **** 0.053
47673 H 0.941409 134.216 166.295 H 0 **** 0.053
47674 H -0.837489 132.647 165.604 H 0 **** 0.053
47675 H -0.539219 131.23 166.639 H 0 **** 0.053
47676 H -2.63338 131.944 167.985 H 0 **** 0.053
47677 H -3.00678 131.382 166.35 H 0 **** 0.053
47678 H -3.36098 133.561 165.514 H 0 **** 0.053
47679 H -1.64663 134.962 165.994 H 0 **** 0.053
47680 H -3.25968 135.925 168.384 H 0 **** 0.053
47681 H -2.36972 136.906 167.194 H 0 **** 0.053
47682 H -4.04137 136.149 165.461 H 0 **** 0.053
47683 H -4.84928 137.023 166.76 H 0 **** 0.053
47684 H -5.749 134.579 165.899 H 0 **** 0.053
47685 H -5.96689 135.09 167.566 H 0 **** 0.053
47686 H -4.30783 133.705 168.25 H 0 **** 0.353
47687 H 8.28874 139.511 173.75 H 0 **** 0.053
47688 H 9.27311 137.861 175.329 H 0 **** 0.053
47689 H 6.54647 136.651 175.877 H 0 **** 0.053
47690 H 8.0222 136.545 176.818 H 0 **** 0.053
47691 H 6.70216 137.986 178.186 H 0 **** 0.053
47692 H 5.87586 138.715 176.802 H 0 **** 0.053
47693 H 8.83 139.195 177.481 H 0 **** 0.053
47694 H 7.53248 140.325 177.921 H 0 **** 0.053
47695 H 8.9355 140.771 175.689 H 0 **** 0.053
47696 H 7.17229 140.992 175.648 H 0 **** 0.053
47697 H 4.20278 140.132 174.056 H 0 **** 0.053
47698 H 2.09243 141.321 173.804 H 0 **** 0.053
47699 H -1.55544 136.686 169.222 H 0 **** 0.053
47700 H -3.43687 138.215 168.666 H 0 **** 0.053
47701 H -3.90164 140.454 168.915 H 0 **** 0.053
47702 H -5.72567 139.509 171.209 H 0 **** 0.053
47703 H -5.82859 138.725 168.266 H 0 **** 0.053
47704 H -7.21812 138.518 169.358 H 0 **** 0.053
47705 H -5.41911 136.516 169.037 H 0 **** 0.053
47706 H -6.23179 136.787 170.585 H 0 **** 0.053
47707 H -3.59862 136.489 170.577 H 0 **** 0.053
47708 H -4.2539 137.799 171.565 H 0 **** 0.053
47709 H 9.85212 124.414 172.541 H 0 **** 0.053
47710 H 7.57523 125.129 173.143 H 0 **** 0.053
47711 H 7.11475 125.271 171.43 H 0 **** 0.053
47712 H 8.30195 126.394 172.131 H 0 **** 0.053
47713 H 9.33932 122.206 171.519 H 0 **** 0.053
47714 H 7.7597 122.811 170.966 H 0 **** 0.053
47715 H 8.09724 122.662 172.708 H 0 **** 0.053
47716 H 2.68317 132.787 166.473 H 0 **** 0.41
47717 H -0.623418 143.846 173.968 H 0 **** 0.053
47718 H -1.88479 146.104 174.287 H 0 **** 0.053
47719 H -3.9237 147.563 173.848 H 0 **** 0.053
47720 H -5.97505 149.056 173.477 H 0 **** 0.053
47721 H -8.3108 149.412 172.276 H 0 **** 0.053
47722 H -11.2817 146.623 169.471 H 0 **** 0.053
47723 H -10.1773 148.492 170.752 H 0 **** 0.053
47724 H -7.97098 140.379 168.764 H 0 **** 0.053
47725 H -9.01267 141.211 167.266 H 0 **** 0.053
47726 H -10.3894 140.83 168.318 H 0 **** 0.053
47727 H -11.2225 141.477 166.067 H 0 **** 0.053
47728 H -10.2647 142.96 166.112 H 0 **** 0.053
47729 H -12.5561 142.259 168.063 H 0 **** 0.053
47730 H -12.673 143.489 166.784 H 0 **** 0.053
47731 C 96.8522 164.138 139.242 C.3 0 **** 0.054
47732 C 97.1826 164.369 140.745 C.3 0 **** -0.106
47733 C 97.9133 163.14 141.353 C.3 0 **** -0.053
47734 C 97.2638 161.855 140.785 C.3 0 **** -0.053
47735 C 97.3476 161.856 139.229 C.3 0 **** 0.054
47736 O 97.6816 163.128 138.692 O.3 0 **** -0.32
47737 C 95.7932 161.711 141.277 C.3 0 **** -0.053
47738 C 95.5991 162.205 142.762 C.3 0 **** 0.107
47739 C 96.9261 162.178 143.51 C.3 0 **** -0.106
47740 C 97.9503 163.15 142.902 C.3 0 **** -0.106
47741 O 94.6693 161.427 143.524 O.3 0 **** -0.32
47742 C 93.5252 161.111 142.746 C.3 0 **** 0.107
47743 C 93.9341 159.979 141.766 C.3 0 **** -0.053
47744 C 95.3134 160.255 141.114 C.3 0 **** -0.106
47745 C 92.9057 159.634 140.72 C.2 0 **** 0
47746 C 92.0641 160.796 140.21 C.3 0 **** 0
47747 C 91.7238 161.873 141.24 C.3 0 **** 0
47748 C 92.8644 162.344 142.133 C.3 0 **** -0.053
47749 C 90.8997 163.023 140.696 C.3 0 **** 0
47750 C 89.638 162.507 140.012 C.3 0 **** 0
47751 C 90.0565 161.47 138.903 C.3 0 **** 0.16
47752 C 90.8426 160.304 139.46 C.3 0 **** 0
47753 C 91.1205 159.188 138.417 C.3 0 **** -0.106
47754 C 91.5898 158.007 139.253 C.3 0 **** -0.106
47755 C 92.6729 158.383 140.258 C.2 0 **** -0.1268
47756 O 89.1005 161.072 137.896 O.3 0 **** -0.32
47757 C 87.8311 161.655 138.098 C.3 0 **** 0.16
47758 C 87.8091 163.196 138.37 C.3 0 **** 0
47759 C 88.8408 163.696 139.413 C.3 0 **** 0
47760 C 92.3273 163.325 143.143 C.2 0 **** 0
47761 C 91.8658 164.6 142.494 C.3 0 **** -0.053
47762 C 90.6037 164.144 141.707 C.3 0 **** 0
47763 C 91.4459 165.735 143.402 C.2 0 **** 0
47764 C 91.1747 165.444 144.701 C.2 0 **** 0
47765 C 91.4326 164.085 145.335 C.3 0 **** -0.106
47766 C 92.1319 163.081 144.433 C.2 0 **** -0.1268
47767 C 90.7798 166.532 145.673 C.3 0 **** -0.106
47768 C 89.946 167.577 144.946 C.3 0 **** -0.106
47769 C 90.6382 167.952 143.647 C.2 0 **** 0
47770 C 91.3657 167.025 142.943 C.2 0 **** 0
47771 C 91.9933 167.421 141.62 C.3 0 **** -0.106
47772 C 92.0936 168.926 141.414 C.3 0 **** -0.053
47773 C 90.7263 169.572 141.695 C.3 0 **** -0.106
47774 C 90.3499 169.358 143.165 C.3 0 **** -0.106
47775 C 88.4455 164.675 140.526 C.3 0 **** 0.147
47776 C 89.7107 165.272 141.124 C.3 0 **** -0.053
47777 C 86.4096 163.805 138.51 C.3 0 **** 0
47778 C 86.3458 165.308 138.813 C.3 0 **** 0.147
47779 S 87.3499 166.053 140.075 S.3 0 **** -0.294
47780 C 84.962 165.896 138.818 C.3 0 **** -0.053
47781 C 84.2726 165.551 137.491 C.3 0 **** 0
47782 C 84.2365 163.996 137.233 C.3 0 **** 0
47783 C 85.6747 163.44 137.189 C.3 0 **** 0
47784 C 83.5331 163.736 135.909 C.3 0 **** 0
47785 C 82.123 164.288 135.969 C.3 0 **** 0
47786 C 82.0681 165.843 136.279 C.3 0 **** 0
47787 C 82.8259 166.124 137.628 C.3 0 **** -0.053
47788 C 80.5706 166.229 136.435 C.3 0 **** 0
47789 C 79.9382 166.098 135.067 C.3 0 **** 0.16
47790 C 80.0908 164.697 134.468 C.3 0 **** 0
47791 C 81.2424 163.811 134.847 C.3 0 **** 0
47792 C 85.7667 161.938 136.809 C.3 0 **** 0
47793 C 87.1971 161.411 136.753 C.3 0 **** -0.053
47794 C 83.7159 162.344 135.266 C.3 0 **** 0
47795 C 84.6987 161.332 135.86 C.3 0 **** 0
47796 C 81.6827 162.712 133.881 C.3 0 **** 0
47797 C 82.5056 161.65 134.634 C.3 0 **** 0
47798 C 79.0356 164.14 133.512 C.3 0 **** 0
47799 C 79.6143 163.028 132.581 C.3 0 **** 0
47800 C 80.4537 161.96 133.307 C.3 0 **** 0
47801 O 78.6209 166.599 135.137 O.3 0 **** -0.32
47802 C 78.8127 167.994 134.905 C.3 0 **** 0.107
47803 C 79.8621 168.573 135.908 C.3 0 **** -0.053
47804 C 80.1138 167.579 137.04 C.3 0 **** 0.107
47805 C 79.3924 169.926 136.463 C.3 0 **** -0.106
47806 C 78.7323 170.753 135.344 C.3 0 **** -0.106
47807 C 77.3864 170.126 134.935 C.3 0 **** 0.134
47808 C 77.4206 168.577 135.029 C.3 0 **** -0.053
47809 C 76.4744 167.905 134.003 C.3 0 **** -0.106
47810 C 75.2257 168.758 133.818 C.3 0 **** -0.106
47811 C 75.6014 170.181 133.305 C.3 0 **** 0.081
47812 N 76.9667 170.592 133.628 N.3 0 **** -0.727
47813 C 85.1122 160.232 134.845 C.3 0 **** 0.16
47814 C 83.8591 159.54 134.332 C.3 0 **** 0.16
47815 C 83.0304 160.556 133.599 C.3 0 **** 0
47816 O 84.0977 158.424 133.501 O.3 0 **** -0.32
47817 C 85.0417 157.557 134.12 C.3 0 **** 0.107
47818 C 86.3136 158.31 134.362 C.3 0 **** 0.107
47819 O 86.0406 159.287 135.353 O.3 0 **** -0.32
47820 C 86.8752 158.95 133.066 C.3 0 **** -0.106
47821 C 86.4631 158.146 131.799 C.3 0 **** -0.106
47822 C 86.3302 156.649 132.141 C.3 0 **** -0.106
47823 C 85.21 156.385 133.186 C.3 0 **** -0.106
47824 C 80.9155 160.842 132.27 C.3 0 **** 0
47825 C 81.7904 159.792 133.028 C.3 0 **** -0.053
47826 C 78.4403 162.296 131.91 C.3 0 **** 0
47827 C 78.9094 161.153 130.987 C.3 0 **** 0.16
47828 C 79.7363 160.119 131.645 C.3 0 **** -0.053
47829 C 77.6538 163.401 131.099 C.3 0 **** 0
47830 C 77.132 164.535 132.073 C.3 0 **** 0
47831 C 78.3771 165.24 132.633 C.3 0 **** -0.053
47832 O 77.9116 160.508 130.267 O.3 0 **** -0.32
47833 C 77.0538 161.481 129.682 C.3 0 **** 0.16
47834 C 76.4437 162.604 130.621 C.3 0 **** 0
47835 C 76.1783 165.577 131.424 C.3 0 **** -0.053
47836 C 75.087 164.846 130.645 C.3 0 **** -0.053
47837 C 75.5962 163.603 129.823 C.3 0 **** 0
47838 C 74.5249 165.73 129.585 C.3 0 **** -0.053
47839 C 74.382 167.143 130.087 C.3 0 **** -0.106
47840 C 75.8052 167.743 130.274 C.3 0 **** -0.106
47841 C 76.8576 166.648 130.544 C.3 0 **** -0.106
47842 C 74.413 162.842 129.274 C.3 0 **** 0
47843 C 74.8158 161.567 128.474 C.3 0 **** 0
47844 C 75.945 160.703 129.028 C.3 0 **** 0
47845 C 73.1933 165.055 129.267 C.3 0 **** 0
47846 C 73.4632 163.74 128.513 C.3 0 **** 0
47847 C 92.6881 169.28 140.027 C.3 0 **** -0.053
47848 C 91.7051 169.042 138.871 C.3 0 **** -0.159
47849 C 93.2025 170.724 139.993 C.3 0 **** -0.159
47850 O 80.9831 168.136 138.017 O.3 0 **** -0.57
47851 C 76.1279 159.214 128.619 C.3 0 **** -0.053
47852 C 75.3111 158.752 127.408 C.3 0 **** -0.053
47853 C 73.8853 159.328 127.477 C.3 0 **** 0
47854 C 73.8361 160.887 127.536 C.3 0 **** 0
47855 C 72.5159 161.628 127.422 C.3 0 **** 0
47856 C 71.3879 160.905 126.746 C.3 0 **** 0
47857 C 71.6883 159.5 126.166 C.3 0 **** 0
47858 C 73.0868 158.844 126.262 C.3 0 **** -0.053
47859 C 70.6403 158.832 125.287 C.3 0 **** -0.053
47860 C 69.421 159.668 124.84 C.3 0 **** -0.053
47861 C 69.0818 160.955 125.654 C.3 0 **** 0
47862 C 70.3262 161.792 126.051 C.3 0 **** 0
47863 C 69.9442 163.022 126.963 C.3 0 **** 0
47864 C 71.2343 163.843 127.343 C.3 0 **** 0
47865 C 72.2218 162.956 128.128 C.3 0 **** 0
47866 C 68.9231 163.922 126.197 C.3 0 **** 0
47867 C 67.6627 163.052 125.833 C.3 0 **** -0.053
47868 C 68.0326 161.84 124.956 C.3 0 **** -0.053
47869 C 72.1968 165.936 128.485 C.3 0 **** -0.053
47870 C 70.8773 165.06 128.288 C.3 0 **** 0
47871 C 68.5009 165.155 127.118 C.3 0 **** 0.02
47872 C 69.754 165.95 127.629 C.3 0 **** 0
47873 C 69.5268 167.243 128.448 C.3 0 **** -0.106
47874 C 68.0532 167.513 128.565 C.3 0 **** -0.106
47875 C 67.3946 167.433 127.192 C.3 0 **** -0.086
47876 C 67.5382 166.145 126.468 C.2 0 **** 0.379
47877 O 66.8562 165.919 125.483 O.2 0 **** -0.419
47878 H 97.0319 165.049 138.656 H 0 **** 0.053
47879 H 95.7875 163.889 139.112 H 0 **** 0.053
47880 H 97.814 165.267 140.892 H 0 **** 0.053
47881 H 96.2535 164.578 141.307 H 0 **** 0.053
47882 H 98.9481 163.173 140.975 H 0 **** 0.053
47883 H 97.8175 160.987 141.189 H 0 **** 0.053
47884 H 96.4104 161.485 138.78 H 0 **** 0.053
47885 H 98.1401 161.178 138.895 H 0 **** 0.053
47886 H 95.1826 162.335 140.601 H 0 **** 0.053
47887 H 95.2588 163.257 142.755 H 0 **** 0.053
47888 H 97.3055 161.139 143.481 H 0 **** 0.053
47889 H 96.7385 162.408 144.571 H 0 **** 0.053
47890 H 98.9556 162.888 143.259 H 0 **** 0.053
47891 H 97.7445 164.165 143.271 H 0 **** 0.053
47892 H 92.809 160.656 143.433 H 0 **** 0.053
47893 H 94.0485 159.073 142.371 H 0 **** 0.053
47894 H 95.3574 159.961 140.042 H 0 **** 0.053
47895 H 96.0516 159.618 141.633 H 0 **** 0.053
47896 H 93.5648 162.91 141.5 H 0 **** 0.053
47897 H 90.1908 158.945 137.865 H 0 **** 0.053
47898 H 91.8693 159.515 137.665 H 0 **** 0.053
47899 H 91.9236 157.186 138.613 H 0 **** 0.053
47900 H 90.7216 157.641 139.832 H 0 **** 0.053
47901 H 93.2841 157.548 140.586 H 0 **** 0.1268
47902 H 92.6444 164.941 141.77 H 0 **** 0.053
47903 H 90.4623 163.639 145.707 H 0 **** 0.053
47904 H 92.0757 164.229 146.249 H 0 **** 0.053
47905 H 92.433 162.146 144.897 H 0 **** 0.1268
47906 H 90.2383 166.119 146.551 H 0 **** 0.053
47907 H 91.7106 166.989 146.055 H 0 **** 0.053
47908 H 89.7742 168.467 145.584 H 0 **** 0.053
47909 H 88.9485 167.161 144.707 H 0 **** 0.053
47910 H 93.0094 167.002 141.576 H 0 **** 0.053
47911 H 91.4397 166.972 140.773 H 0 **** 0.053
47912 H 92.8054 169.309 142.174 H 0 **** 0.053
47913 H 89.9642 169.109 141.048 H 0 **** 0.053
47914 H 90.7275 170.647 141.465 H 0 **** 0.053
47915 H 89.2759 169.613 143.322 H 0 **** 0.053
47916 H 90.9338 170.066 143.796 H 0 **** 0.053
47917 H 89.4173 166.057 141.902 H 0 **** 0.053
47918 H 84.8995 167.003 139.045 H 0 **** 0.053
47919 H 82.9544 167.247 137.747 H 0 **** 0.053
47920 H 87.2806 160.305 136.537 H 0 **** 0.053
47921 H 79.1682 168.128 133.869 H 0 **** 0.053
47922 H 80.8141 168.767 135.372 H 0 **** 0.053
47923 H 79.1643 167.349 137.503 H 0 **** 0.053
47924 H 78.6562 169.757 137.278 H 0 **** 0.053
47925 H 80.2499 170.466 136.925 H 0 **** 0.053
47926 H 79.4259 170.759 134.487 H 0 **** 0.053
47927 H 78.5867 171.802 135.644 H 0 **** 0.053
47928 H 76.6353 170.474 135.662 H 0 **** 0.053
47929 H 77.081 168.286 136.045 H 0 **** 0.053
47930 H 76.9952 167.865 133.035 H 0 **** 0.053
47931 H 76.2414 166.869 134.304 H 0 **** 0.053
47932 H 74.7174 168.819 134.797 H 0 **** 0.053
47933 H 74.5063 168.274 133.135 H 0 **** 0.053
47934 H 74.9078 170.92 133.738 H 0 **** 0.053
47935 H 75.4584 170.243 132.212 H 0 **** 0.053
47936 H 77.6051 170.245 132.94 H 0 **** 0.353
47937 H 84.6292 157.256 135.083 H 0 **** 0.053
47938 H 87.0657 157.635 134.762 H 0 **** 0.053
47939 H 86.531 159.997 132.937 H 0 **** 0.053
47940 H 87.9821 159.028 133.109 H 0 **** 0.053
47941 H 87.1906 158.306 130.977 H 0 **** 0.053
47942 H 85.4916 158.521 131.419 H 0 **** 0.053
47943 H 87.2936 156.318 132.566 H 0 **** 0.053
47944 H 86.1552 156.048 131.229 H 0 **** 0.053
47945 H 85.3972 155.434 133.719 H 0 **** 0.053
47946 H 84.2394 156.261 132.653 H 0 **** 0.053
47947 H 82.1171 158.991 132.28 H 0 **** 0.053
47948 H 80.0782 159.296 130.984 H 0 **** 0.053
47949 H 78.014 166.105 133.257 H 0 **** 0.053
47950 H 75.7317 166.084 132.269 H 0 **** 0.053
47951 H 74.3145 164.513 131.366 H 0 **** 0.053
47952 H 75.1576 165.745 128.672 H 0 **** 0.053
47953 H 73.8391 167.121 131.051 H 0 **** 0.053
47954 H 73.8022 167.808 129.41 H 0 **** 0.053
47955 H 75.8012 168.457 131.122 H 0 **** 0.053
47956 H 76.0822 168.333 129.379 H 0 **** 0.053
47957 H 77.7521 167.09 131.019 H 0 **** 0.053
47958 H 77.195 166.187 129.606 H 0 **** 0.053
47959 H 93.5618 168.62 139.867 H 0 **** 0.053
47960 H 92.2001 169.192 137.898 H 0 **** 0.053
47961 H 90.8571 169.744 138.927 H 0 **** 0.053
47962 H 91.2919 168.02 138.877 H 0 **** 0.053
47963 H 93.9531 170.898 140.78 H 0 **** 0.053
47964 H 92.3797 171.439 140.148 H 0 **** 0.053
47965 H 93.6729 170.955 139.025 H 0 **** 0.053
47966 H 81.0893 167.459 138.682 H 0 **** 0.41
47967 H 77.162 158.785 128.744 H 0 **** 0.053
47968 H 75.3206 157.632 127.307 H 0 **** 0.053
47969 H 73.0563 157.727 126.147 H 0 **** 0.053
47970 H 70.806 157.787 124.92 H 0 **** 0.053
47971 H 68.5683 159.103 124.388 H 0 **** 0.053
47972 H 66.8561 163.648 125.328 H 0 **** 0.053
47973 H 67.1488 161.243 124.633 H 0 **** 0.053
47974 H 71.9491 166.898 129.063 H 0 **** 0.053
47975 H 70.0011 167.18 129.443 H 0 **** 0.053
47976 H 70.049 168.007 127.875 H 0 **** 0.053
47977 H 67.8884 168.497 129.002 H 0 **** 0.053
47978 H 67.6014 166.772 129.255 H 0 **** 0.053
47979 H 67.8374 168.155 126.501 H 0 **** 0.053
47980 H 66.3131 167.549 127.189 H 0 **** 0.053
47981 C 59.9631 121.257 203.6 C.3 0 **** 0.054
47982 C 58.961 121.207 204.789 C.3 0 **** -0.106
47983 C 59.0643 119.857 205.552 C.3 0 **** -0.053
47984 C 59.2529 118.723 204.515 C.3 0 **** -0.053
47985 C 60.5244 118.992 203.655 C.3 0 **** 0.054
47986 O 61.0118 120.32 203.782 O.3 0 **** -0.32
47987 C 57.9845 118.567 203.625 C.3 0 **** -0.053
47988 C 56.6478 118.804 204.427 C.3 0 **** 0.107
47989 C 56.8741 118.582 205.917 C.3 0 **** -0.106
47990 C 57.8712 119.595 206.505 C.3 0 **** -0.106
47991 O 55.5672 117.951 204.034 O.3 0 **** -0.32
47992 C 55.5129 117.831 202.621 C.3 0 **** 0.107
47993 C 56.6547 116.869 202.197 C.3 0 **** -0.053
47994 C 57.9785 117.187 202.939 C.3 0 **** -0.106
47995 C 56.8854 116.762 200.711 C.2 0 **** 0
47996 C 56.6443 118.034 199.91 C.3 0 **** 0
47997 C 55.5114 118.929 200.409 C.3 0 **** 0
47998 C 55.4557 119.182 201.911 C.3 0 **** -0.053
47999 C 55.3085 120.194 199.6 C.3 0 **** 0
48000 C 55.1315 119.867 198.121 C.3 0 **** 0
48001 C 56.3705 119.022 197.643 C.3 0 **** 0.16
48002 C 56.54 117.74 198.427 C.3 0 **** 0
48003 C 57.6499 116.81 197.864 C.3 0 **** -0.106
48004 C 57.4098 115.48 198.563 C.3 0 **** -0.106
48005 C 57.2427 115.623 200.071 C.2 0 **** -0.1268
48006 O 56.6177 118.849 196.23 O.3 0 **** -0.32
48007 C 55.621 119.45 195.431 C.3 0 **** 0.16
48008 C 55.2254 120.919 195.798 C.3 0 **** 0
48009 C 54.9842 121.179 197.305 C.3 0 **** 0
48010 C 54.2289 119.997 202.229 C.2 0 **** 0
48011 C 54.3166 121.386 201.662 C.3 0 **** -0.053
48012 C 54.2128 121.135 200.13 C.3 0 **** 0
48013 C 53.2246 122.364 202.034 C.2 0 **** 0
48014 C 52.0715 121.865 202.552 C.2 0 **** 0
48015 C 51.8801 120.405 202.937 C.3 0 **** -0.106
48016 C 53.1237 119.541 202.808 C.2 0 **** -0.1268
48017 C 50.9497 122.785 202.975 C.3 0 **** -0.106
48018 C 50.8969 123.979 202.033 C.3 0 **** -0.106
48019 C 52.2977 124.54 201.861 C.2 0 **** 0
48020 C 53.3949 123.716 201.884 C.2 0 **** 0
48021 C 54.7727 124.306 201.649 C.3 0 **** -0.106
48022 C 54.8315 125.817 201.823 C.3 0 **** -0.053
48023 C 53.7059 126.47 201.002 C.3 0 **** -0.106
48024 C 52.3462 126.021 201.549 C.3 0 **** -0.106
48025 C 53.7652 121.968 197.797 C.3 0 **** 0.147
48026 C 54.0026 122.39 199.24 C.3 0 **** -0.053
48027 C 54.1966 121.565 194.863 C.3 0 **** 0
48028 C 53.7628 122.995 195.207 C.3 0 **** 0.147
48029 S 53.2885 123.448 196.857 S.3 0 **** -0.294
48030 C 52.8422 123.631 194.206 C.3 0 **** -0.053
48031 C 53.4976 123.558 192.821 C.3 0 **** 0
48032 C 53.8483 122.076 192.413 C.3 0 **** 0
48033 C 54.8219 121.467 193.443 C.3 0 **** 0
48034 C 54.4874 122.086 191.031 C.3 0 **** 0
48035 C 53.5176 122.685 190.031 C.3 0 **** 0
48036 C 53.0725 124.164 190.397 C.3 0 **** 0
48037 C 52.4454 124.168 191.84 C.3 0 **** -0.053
48038 C 51.993 124.588 189.361 C.3 0 **** 0
48039 C 52.695 124.729 188.028 C.3 0 **** 0.16
48040 C 53.4063 123.445 187.59 C.3 0 **** 0
48041 C 53.9144 122.456 188.599 C.3 0 **** 0
48042 C 55.3411 120.052 193.073 C.3 0 **** 0
48043 C 56.3154 119.474 194.093 C.3 0 **** -0.053
48044 C 55.2551 120.819 190.591 C.3 0 **** 0
48045 C 55.4989 119.672 191.576 C.3 0 **** 0
48046 C 55.0594 121.52 188.212 C.3 0 **** 0
48047 C 55.0861 120.305 189.159 C.3 0 **** 0
48048 C 53.5764 123.117 186.106 C.3 0 **** 0
48049 C 54.7815 122.157 185.849 C.3 0 **** 0
48050 C 54.8396 120.94 186.791 C.3 0 **** 0
48051 O 51.7798 125.272 187.101 O.3 0 **** -0.32
48052 C 51.9263 126.675 187.316 C.3 0 **** 0.107
48053 C 51.7175 127.019 188.826 C.3 0 **** -0.053
48054 C 51.0924 125.832 189.555 C.3 0 **** 0.107
48055 C 50.8479 128.276 188.98 C.3 0 **** -0.106
48056 C 51.2322 129.316 187.912 C.3 0 **** -0.106
48057 C 50.7994 128.835 186.514 C.3 0 **** 0.134
48058 C 50.9149 127.294 186.374 C.3 0 **** -0.053
48059 C 51.2153 126.858 184.918 C.3 0 **** -0.106
48060 C 50.5051 127.789 183.944 C.3 0 **** -0.106
48061 C 50.9817 129.26 184.141 C.3 0 **** 0.081
48062 N 51.5176 129.541 185.471 N.3 0 **** -0.727
48063 C 56.6672 118.748 191.14 C.3 0 **** 0.16
48064 C 56.3802 118.217 189.744 C.3 0 **** 0.16
48065 C 56.3383 119.384 188.799 C.3 0 **** 0
48066 O 57.2988 117.253 189.277 O.3 0 **** -0.32
48067 C 57.4844 116.247 190.267 C.3 0 **** 0.107
48068 C 57.9891 116.884 191.525 C.3 0 **** 0.107
48069 O 56.9383 117.684 192.04 O.3 0 **** -0.32
48070 C 59.2792 117.711 191.289 C.3 0 **** -0.106
48071 C 60.1088 117.162 190.093 C.3 0 **** -0.106
48072 C 59.9228 115.636 189.976 C.3 0 **** -0.106
48073 C 58.4472 115.248 189.675 C.3 0 **** -0.106
48074 C 56.0564 119.998 186.377 C.3 0 **** 0
48075 C 56.1113 118.792 187.369 C.3 0 **** -0.053
48076 C 54.6722 121.61 184.416 C.3 0 **** 0
48077 C 55.8047 120.625 184.072 C.3 0 **** 0.16
48078 C 55.9086 119.456 184.968 C.3 0 **** -0.053
48079 C 54.7054 122.876 183.472 C.3 0 **** 0
48080 C 53.4983 123.847 183.802 C.3 0 **** 0
48081 C 53.7429 124.383 185.222 C.3 0 **** -0.053
48082 O 55.8274 120.164 182.763 O.3 0 **** -0.32
48083 C 55.6601 121.263 181.876 C.3 0 **** 0.16
48084 C 54.4295 122.235 182.115 C.3 0 **** 0
48085 C 53.3115 125.031 182.813 C.3 0 **** -0.053
48086 C 53.3358 124.5 181.381 C.3 0 **** -0.053
48087 C 54.4275 123.397 181.114 C.3 0 **** 0
48088 C 53.7275 125.582 180.433 C.3 0 **** -0.053
48089 C 53.0931 126.891 180.822 C.3 0 **** -0.106
48090 C 53.7503 127.38 182.145 C.3 0 **** -0.106
48091 C 54.3007 126.205 182.98 C.3 0 **** -0.106
48092 C 54.2182 122.8 179.743 C.3 0 **** 0
48093 C 55.2349 121.67 179.402 C.3 0 **** 0
48094 C 55.5727 120.663 180.5 C.3 0 **** 0
48095 C 53.2375 125.038 179.094 C.3 0 **** 0
48096 C 54.1365 123.863 178.669 C.3 0 **** 0
48097 C 56.2444 126.378 201.518 C.3 0 **** -0.053
48098 C 56.5764 126.393 200.018 C.3 0 **** -0.159
48099 C 56.4278 127.78 202.112 C.3 0 **** -0.159
48100 O 50.7997 126.168 190.904 O.3 0 **** -0.57
48101 C 56.1776 119.266 180.185 C.3 0 **** -0.053
48102 C 56.6763 119.061 178.751 C.3 0 **** -0.053
48103 C 55.6869 119.683 177.75 C.3 0 **** 0
48104 C 55.4406 121.208 177.971 C.3 0 **** 0
48105 C 54.6456 122.022 176.965 C.3 0 **** 0
48106 C 54.5629 121.482 175.568 C.3 0 **** 0
48107 C 55.3577 120.188 175.256 C.3 0 **** 0
48108 C 56.2054 119.458 176.325 C.3 0 **** -0.053
48109 C 55.4766 119.732 173.809 C.3 0 **** -0.053
48110 C 54.9928 120.692 172.7 C.3 0 **** -0.053
48111 C 54.0072 121.833 173.102 C.3 0 **** 0
48112 C 54.3644 122.527 174.442 C.3 0 **** 0
48113 C 53.2818 123.596 174.861 C.3 0 **** 0
48114 C 53.6825 124.275 176.225 C.3 0 **** 0
48115 C 53.766 123.219 177.345 C.3 0 **** 0
48116 C 53.1611 124.664 173.727 C.3 0 **** 0
48117 C 52.7713 123.932 172.389 C.3 0 **** -0.053
48118 C 53.817 122.875 171.985 C.3 0 **** -0.053
48119 C 53.1465 126.088 177.967 C.3 0 **** -0.053
48120 C 52.5906 125.325 176.681 C.3 0 **** 0
48121 C 52.0463 125.737 174.12 C.3 0 **** 0.02
48122 C 52.3239 126.369 175.529 C.3 0 **** 0
48123 C 51.4021 127.509 176.024 C.3 0 **** -0.106
48124 C 50.3812 127.826 174.967 C.3 0 **** -0.106
48125 C 51.0642 128.018 173.618 C.3 0 **** -0.086
48126 C 51.8602 126.87 173.115 C.2 0 **** 0.379
48127 O 52.2408 126.852 171.957 O.2 0 **** -0.419
48128 H 60.4334 122.247 203.524 H 0 **** 0.053
48129 H 59.4422 121.087 202.645 H 0 **** 0.053
48130 H 59.1336 122.034 205.505 H 0 **** 0.053
48131 H 57.9298 121.359 204.42 H 0 **** 0.053
48132 H 59.989 119.905 206.15 H 0 **** 0.053
48133 H 59.3693 117.773 205.068 H 0 **** 0.053
48134 H 60.345 118.75 202.593 H 0 **** 0.053
48135 H 61.3445 118.344 203.984 H 0 **** 0.053
48136 H 58.0739 119.328 202.83 H 0 **** 0.053
48137 H 56.3307 119.856 204.305 H 0 **** 0.053
48138 H 57.2424 117.547 206.05 H 0 **** 0.053
48139 H 55.9026 118.633 206.434 H 0 **** 0.053
48140 H 58.2332 119.227 207.474 H 0 **** 0.053
48141 H 57.3456 120.539 206.708 H 0 **** 0.053
48142 H 54.5866 117.297 202.398 H 0 **** 0.053
48143 H 56.3488 115.866 202.517 H 0 **** 0.053
48144 H 58.8779 117.083 202.293 H 0 **** 0.053
48145 H 58.0919 116.434 203.739 H 0 **** 0.053
48146 H 56.3184 119.815 202.169 H 0 **** 0.053
48147 H 57.5412 116.712 196.766 H 0 **** 0.053
48148 H 58.6607 117.226 198.056 H 0 **** 0.053
48149 H 58.2047 114.768 198.327 H 0 **** 0.053
48150 H 56.4653 115.061 198.169 H 0 **** 0.053
48151 H 57.4486 114.715 200.63 H 0 **** 0.1268
48152 H 55.3233 121.809 201.895 H 0 **** 0.053
48153 H 51.0439 119.949 202.328 H 0 **** 0.053
48154 H 51.5401 120.357 204.01 H 0 **** 0.053
48155 H 53.0458 118.526 203.187 H 0 **** 0.1268
48156 H 49.9748 122.252 203.01 H 0 **** 0.053
48157 H 51.1689 123.123 204.003 H 0 **** 0.053
48158 H 50.1946 124.752 202.406 H 0 **** 0.053
48159 H 50.5201 123.661 201.043 H 0 **** 0.053
48160 H 55.4738 123.853 202.365 H 0 **** 0.053
48161 H 55.148 124.039 200.642 H 0 **** 0.053
48162 H 54.6282 126.028 202.893 H 0 **** 0.053
48163 H 53.7979 126.164 199.948 H 0 **** 0.053
48164 H 53.77 127.567 201.021 H 0 **** 0.053
48165 H 51.5393 126.296 200.831 H 0 **** 0.053
48166 H 52.131 126.58 202.488 H 0 **** 0.053
48167 H 53.1271 123.041 199.584 H 0 **** 0.053
48168 H 52.5086 124.683 194.448 H 0 **** 0.053
48169 H 52.3098 125.245 192.174 H 0 **** 0.053
48170 H 56.6575 118.421 193.871 H 0 **** 0.053
48171 H 52.9409 126.971 187 H 0 **** 0.053
48172 H 52.698 127.258 189.287 H 0 **** 0.053
48173 H 50.1736 125.572 189.048 H 0 **** 0.053
48174 H 49.7764 128.003 188.86 H 0 **** 0.053
48175 H 50.9498 128.685 190.011 H 0 **** 0.053
48176 H 52.3272 129.438 187.951 H 0 **** 0.053
48177 H 50.7938 130.303 188.126 H 0 **** 0.053
48178 H 49.7322 129.088 186.404 H 0 **** 0.053
48179 H 49.9426 126.848 186.668 H 0 **** 0.053
48180 H 52.2971 126.962 184.748 H 0 **** 0.053
48181 H 50.9503 125.797 184.764 H 0 **** 0.053
48182 H 49.4197 127.704 184.134 H 0 **** 0.053
48183 H 50.6539 127.466 182.899 H 0 **** 0.053
48184 H 50.1383 129.945 183.957 H 0 **** 0.053
48185 H 51.7448 129.518 183.386 H 0 **** 0.053
48186 H 52.4848 129.29 185.517 H 0 **** 0.353
48187 H 56.5104 115.803 190.471 H 0 **** 0.053
48188 H 58.2088 116.114 192.26 H 0 **** 0.053
48189 H 59.0563 118.781 191.091 H 0 **** 0.053
48190 H 59.9132 117.728 192.201 H 0 **** 0.053
48191 H 61.1802 117.427 190.202 H 0 **** 0.053
48192 H 59.7728 117.644 189.153 H 0 **** 0.053
48193 H 60.214 115.19 190.942 H 0 **** 0.053
48194 H 60.5962 115.213 189.208 H 0 **** 0.053
48195 H 58.2479 114.211 190.002 H 0 **** 0.053
48196 H 58.286 115.266 188.573 H 0 **** 0.053
48197 H 56.9856 118.118 187.066 H 0 **** 0.053
48198 H 56.7223 118.743 184.727 H 0 **** 0.053
48199 H 52.938 125.143 185.431 H 0 **** 0.053
48200 H 52.3214 125.405 183.036 H 0 **** 0.053
48201 H 52.3347 124.085 181.152 H 0 **** 0.053
48202 H 54.8283 125.725 180.392 H 0 **** 0.053
48203 H 52.008 126.728 180.964 H 0 **** 0.053
48204 H 53.1976 127.691 180.057 H 0 **** 0.053
48205 H 53.005 127.935 182.75 H 0 **** 0.053
48206 H 54.5567 128.103 181.916 H 0 **** 0.053
48207 H 54.4261 126.514 184.033 H 0 **** 0.053
48208 H 55.2924 125.899 182.622 H 0 **** 0.053
48209 H 56.9751 125.715 202.018 H 0 **** 0.053
48210 H 57.6252 126.687 199.852 H 0 **** 0.053
48211 H 55.9377 127.115 199.483 H 0 **** 0.053
48212 H 56.4309 125.408 199.547 H 0 **** 0.053
48213 H 56.2496 127.778 203.199 H 0 **** 0.053
48214 H 55.7254 128.496 201.657 H 0 **** 0.053
48215 H 57.4491 128.153 201.941 H 0 **** 0.053
48216 H 50.4112 125.385 191.289 H 0 **** 0.41
48217 H 56.7542 118.77 181.016 H 0 **** 0.053
48218 H 56.8833 117.975 178.538 H 0 **** 0.053
48219 H 56.3999 118.38 176.071 H 0 **** 0.053
48220 H 55.9815 118.762 173.571 H 0 **** 0.053
48221 H 54.8884 120.257 171.675 H 0 **** 0.053
48222 H 52.61 124.645 171.537 H 0 **** 0.053
48223 H 53.5959 122.387 171.007 H 0 **** 0.053
48224 H 52.4372 126.946 178.254 H 0 **** 0.053
48225 H 50.918 127.251 176.982 H 0 **** 0.053
48226 H 52.087 128.336 176.205 H 0 **** 0.053
48227 H 49.8304 128.725 175.239 H 0 **** 0.053
48228 H 49.6444 126.999 174.914 H 0 **** 0.053
48229 H 51.798 128.827 173.661 H 0 **** 0.053
48230 H 50.3936 128.185 172.778 H 0 **** 0.053
48231 C 50.0361 107.536 110.419 C.3 0 **** 0.054
48232 C 50.3313 107.773 108.91 C.3 0 **** -0.106
48233 C 51.7304 108.419 108.708 C.3 0 **** -0.053
48234 C 51.9478 109.472 109.821 C.3 0 **** -0.053
48235 C 51.8251 108.802 111.223 C.3 0 **** 0.054
48236 O 51.2379 107.51 111.171 O.3 0 **** -0.32
48237 C 50.9501 110.658 109.666 C.3 0 **** -0.053
48238 C 50.6731 111.025 108.158 C.3 0 **** 0.107
48239 C 51.8134 110.537 107.273 C.3 0 **** -0.106
48240 C 51.9391 109.004 107.29 C.3 0 **** -0.106
48241 O 50.5196 112.427 107.912 O.3 0 **** -0.32
48242 C 49.73 113.029 108.926 C.3 0 **** 0.107
48243 C 50.6276 113.172 110.184 C.3 0 **** -0.053
48244 C 51.4538 111.887 110.449 C.3 0 **** -0.106
48245 C 49.9133 113.616 111.435 C.2 0 **** 0
48246 C 48.4814 113.124 111.591 C.3 0 **** 0
48247 C 47.6774 112.998 110.298 C.3 0 **** 0
48248 C 48.3826 112.337 109.12 C.3 0 **** -0.053
48249 C 46.2619 112.49 110.486 C.3 0 **** 0
48250 C 45.5148 113.338 111.51 C.3 0 **** 0
48251 C 46.346 113.358 112.847 C.3 0 **** 0.16
48252 C 47.7433 113.906 112.659 C.3 0 **** 0
48253 C 48.5214 114.092 113.99 C.3 0 **** -0.106
48254 C 49.7148 114.953 113.605 C.3 0 **** -0.106
48255 C 50.4472 114.436 112.372 C.2 0 **** -0.1268
48256 O 45.7263 113.813 114.07 O.3 0 **** -0.32
48257 C 44.4028 114.26 113.869 C.3 0 **** 0.16
48258 C 43.4694 113.32 113.036 C.3 0 **** 0
48259 C 44.0903 112.764 111.73 C.3 0 **** 0
48260 C 47.4813 112.388 107.913 C.2 0 **** 0
48261 C 46.259 111.532 108.091 C.3 0 **** -0.053
48262 C 45.4627 112.298 109.185 C.3 0 **** 0
48263 C 45.3422 111.365 106.899 C.2 0 **** 0
48264 C 45.4659 112.246 105.872 C.2 0 **** 0
48265 C 46.5801 113.278 105.773 C.3 0 **** -0.106
48266 C 47.6346 113.187 106.864 C.2 0 **** -0.1268
48267 C 44.6049 112.121 104.636 C.3 0 **** -0.106
48268 C 43.2247 111.618 105.033 C.3 0 **** -0.106
48269 C 43.3773 110.425 105.96 C.2 0 **** 0
48270 C 44.4301 110.343 106.836 C.2 0 **** 0
48271 C 44.5161 109.163 107.787 C.3 0 **** -0.106
48272 C 43.6429 107.984 107.383 C.3 0 **** -0.053
48273 C 42.2139 108.479 107.102 C.3 0 **** -0.106
48274 C 42.2292 109.439 105.907 C.3 0 **** -0.106
48275 C 43.3131 112.771 110.407 C.3 0 **** 0.147
48276 C 44.0025 111.83 109.43 C.3 0 **** -0.053
48277 C 42.0211 113.804 112.903 C.3 0 **** 0
48278 C 41.0828 112.927 112.064 C.3 0 **** 0.147
48279 S 41.5571 112.309 110.467 S.3 0 **** -0.294
48280 C 39.6436 113.363 112.058 C.3 0 **** -0.053
48281 C 39.1597 113.492 113.508 C.3 0 **** 0
48282 C 40.0582 114.482 114.343 C.3 0 **** 0
48283 C 41.5152 113.976 114.362 C.3 0 **** 0
48284 C 39.5116 114.562 115.761 C.3 0 **** 0
48285 C 38.0809 115.06 115.724 C.3 0 **** 0
48286 C 37.118 114.146 114.856 C.3 0 **** 0
48287 C 37.6972 114.029 113.399 C.3 0 **** -0.053
48288 C 35.7324 114.849 114.809 C.3 0 **** 0
48289 C 35.1562 114.779 116.206 C.3 0 **** 0.16
48290 C 36.0663 115.414 117.262 C.3 0 **** 0
48291 C 37.554 115.477 117.069 C.3 0 **** 0
48292 C 42.466 114.804 115.268 C.3 0 **** 0
48293 C 43.8979 114.279 115.289 C.3 0 **** -0.053
48294 C 40.4343 115.155 116.849 C.3 0 **** 0
48295 C 41.894 115.493 116.536 C.3 0 **** 0
48296 C 38.4579 115.584 118.297 C.3 0 **** 0
48297 C 39.8431 116.116 117.884 C.3 0 **** 0
48298 C 35.4725 116.058 118.516 C.3 0 **** 0
48299 C 36.4962 116.103 119.694 C.3 0 **** 0
48300 C 37.8945 116.618 119.306 C.3 0 **** 0
48301 O 33.8304 115.26 116.164 O.3 0 **** -0.32
48302 C 33.0926 114.091 115.811 C.3 0 **** 0.107
48303 C 33.6741 113.454 114.508 C.3 0 **** -0.053
48304 C 34.6185 114.436 113.817 C.3 0 **** 0.107
48305 C 32.5417 113.027 113.562 C.3 0 **** -0.106
48306 C 31.3838 112.414 114.371 C.3 0 **** -0.106
48307 C 30.6726 113.499 115.2 C.3 0 **** 0.134
48308 C 31.6647 114.583 115.701 C.3 0 **** -0.053
48309 C 31.2175 115.211 117.044 C.3 0 **** -0.106
48310 C 29.6976 115.307 117.089 C.3 0 **** -0.106
48311 C 29.0512 113.895 116.95 C.3 0 **** 0.081
48312 N 29.9012 112.913 116.278 N.3 0 **** -0.727
48313 C 42.7713 115.597 117.813 C.3 0 **** 0.16
48314 C 42.1599 116.629 118.747 C.3 0 **** 0.16
48315 C 40.8012 116.141 119.16 C.3 0 **** 0
48316 O 42.9331 116.923 119.891 O.3 0 **** -0.32
48317 C 44.2765 117.194 119.506 C.3 0 **** 0.107
48318 C 44.8322 116.001 118.792 C.3 0 **** 0.107
48319 O 44.1374 115.887 117.561 O.3 0 **** -0.32
48320 C 44.7201 114.705 119.636 C.3 0 **** -0.106
48321 C 44.7416 115.005 121.162 C.3 0 **** -0.106
48322 C 45.6014 116.253 121.445 C.3 0 **** -0.106
48323 C 45.0171 117.529 120.776 C.3 0 **** -0.106
48324 C 38.8188 116.698 120.601 C.3 0 **** 0
48325 C 40.2371 117.191 120.171 C.3 0 **** -0.053
48326 C 35.9519 117.053 120.774 C.3 0 **** 0
48327 C 36.9107 117.19 121.974 C.3 0 **** 0.16
48328 C 38.2702 117.662 121.637 C.3 0 **** -0.053
48329 C 34.5621 116.447 121.217 C.3 0 **** 0
48330 C 33.5742 116.368 119.982 C.3 0 **** 0
48331 C 34.1773 115.35 119.001 C.3 0 **** -0.053
48332 O 36.4448 117.953 123.039 O.3 0 **** -0.32
48333 C 35.1069 117.57 123.337 C.3 0 **** 0.16
48334 C 34.0528 117.539 122.152 C.3 0 **** 0
48335 C 32.1119 115.971 120.328 C.3 0 **** -0.053
48336 C 31.6188 116.826 121.493 C.3 0 **** -0.053
48337 C 32.682 117.047 122.633 C.3 0 **** 0
48338 C 30.509 116.137 122.21 C.3 0 **** -0.053
48339 C 29.588 115.449 121.237 C.3 0 **** -0.106
48340 C 30.3494 114.247 120.608 C.3 0 **** -0.106
48341 C 31.8756 114.471 120.61 C.3 0 **** -0.106
48342 C 32.1635 118.071 123.616 C.3 0 **** 0
48343 C 33.1654 118.389 124.765 C.3 0 **** 0
48344 C 34.6444 118.517 124.41 C.3 0 **** 0
48345 C 29.8494 117.283 122.973 C.3 0 **** 0
48346 C 30.779 117.726 124.118 C.3 0 **** 0
48347 C 43.7211 106.829 108.414 C.3 0 **** -0.053
48348 C 42.9635 107.129 109.716 C.3 0 **** -0.159
48349 C 43.2285 105.508 107.81 C.3 0 **** -0.159
48350 O 35.0701 113.914 112.575 O.3 0 **** -0.57
48351 C 35.6543 119.272 125.32 C.3 0 **** -0.053
48352 C 35.1572 119.603 126.731 C.3 0 **** -0.053
48353 C 33.7003 120.098 126.679 C.3 0 **** 0
48354 C 32.7094 119.077 126.038 C.3 0 **** 0
48355 C 31.2111 119.322 126.071 C.3 0 **** 0
48356 C 30.6971 120.235 127.145 C.3 0 **** 0
48357 C 31.7264 120.791 128.161 C.3 0 **** 0
48358 C 33.2307 120.433 128.098 C.3 0 **** -0.053
48359 C 31.2163 121.537 129.386 C.3 0 **** -0.053
48360 C 29.6982 121.523 129.67 C.3 0 **** -0.053
48361 C 28.739 121.165 128.493 C.3 0 **** 0
48362 C 29.2404 119.992 127.61 C.3 0 **** 0
48363 C 28.2948 119.738 126.372 C.3 0 **** 0
48364 C 28.8395 118.541 125.504 C.3 0 **** 0
48365 C 30.2491 118.866 124.969 C.3 0 **** 0
48366 C 26.8535 119.433 126.89 C.3 0 **** 0
48367 C 26.3644 120.652 127.758 C.3 0 **** -0.053
48368 C 27.2935 120.914 128.959 C.3 0 **** -0.053
48369 C 28.4373 116.97 123.51 C.3 0 **** -0.053
48370 C 27.9261 118.295 124.236 C.3 0 **** 0
48371 C 25.8764 119.206 125.649 C.3 0 **** 0.02
48372 C 26.4239 118.102 124.677 C.3 0 **** 0
48373 C 25.5488 117.674 123.475 C.3 0 **** -0.106
48374 C 24.2499 118.428 123.505 C.3 0 **** -0.106
48375 C 23.6212 118.336 124.891 C.3 0 **** -0.086
48376 C 24.4391 118.849 126.018 C.2 0 **** 0.379
48377 O 23.9285 119.026 127.111 O.2 0 **** -0.419
48378 H 49.5445 106.566 110.576 H 0 **** 0.053
48379 H 49.3445 108.301 110.805 H 0 **** 0.053
48380 H 50.2874 106.83 108.331 H 0 **** 0.053
48381 H 49.5468 108.416 108.469 H 0 **** 0.053
48382 H 52.4702 107.618 108.872 H 0 **** 0.053
48383 H 52.9619 109.895 109.696 H 0 **** 0.053
48384 H 51.2701 109.448 111.925 H 0 **** 0.053
48385 H 52.8199 108.657 111.658 H 0 **** 0.053
48386 H 50.0097 110.33 110.142 H 0 **** 0.053
48387 H 49.7595 110.503 107.818 H 0 **** 0.053
48388 H 52.745 111.011 107.636 H 0 **** 0.053
48389 H 51.653 110.913 106.25 H 0 **** 0.053
48390 H 52.9262 108.717 106.902 H 0 **** 0.053
48391 H 51.1981 108.576 106.6 H 0 **** 0.053
48392 H 49.5354 114.05 108.592 H 0 **** 0.053
48393 H 51.3476 113.967 109.962 H 0 **** 0.053
48394 H 51.54 111.637 111.529 H 0 **** 0.053
48395 H 52.4831 112.084 110.101 H 0 **** 0.053
48396 H 48.5035 111.271 109.367 H 0 **** 0.053
48397 H 47.8808 114.604 114.735 H 0 **** 0.053
48398 H 48.8127 113.114 114.427 H 0 **** 0.053
48399 H 50.4031 115.062 114.446 H 0 **** 0.053
48400 H 49.3336 115.961 113.358 H 0 **** 0.053
48401 H 51.4765 114.772 112.293 H 0 **** 0.1268
48402 H 46.5684 110.537 108.494 H 0 **** 0.053
48403 H 46.1439 114.321 105.762 H 0 **** 0.053
48404 H 47.1022 113.152 104.782 H 0 **** 0.053
48405 H 48.5005 113.833 106.751 H 0 **** 0.1268
48406 H 44.5438 113.083 104.082 H 0 **** 0.053
48407 H 45.0947 111.394 103.964 H 0 **** 0.053
48408 H 42.6198 111.363 104.141 H 0 **** 0.053
48409 H 42.6756 112.414 105.572 H 0 **** 0.053
48410 H 45.5603 108.819 107.824 H 0 **** 0.053
48411 H 44.2601 109.472 108.819 H 0 **** 0.053
48412 H 44.0525 107.59 106.43 H 0 **** 0.053
48413 H 41.8283 109.004 107.991 H 0 **** 0.053
48414 H 41.5254 107.646 106.901 H 0 **** 0.053
48415 H 41.2546 109.977 105.841 H 0 **** 0.053
48416 H 42.3238 108.848 104.969 H 0 **** 0.053
48417 H 43.3838 111.776 108.469 H 0 **** 0.053
48418 H 38.9406 112.729 111.439 H 0 **** 0.053
48419 H 37.12 113.224 112.841 H 0 **** 0.053
48420 H 44.6178 114.903 115.895 H 0 **** 0.053
48421 H 33.1625 113.372 116.645 H 0 **** 0.053
48422 H 34.2313 112.531 114.767 H 0 **** 0.053
48423 H 34.0763 115.354 113.637 H 0 **** 0.053
48424 H 32.1709 113.914 113.004 H 0 **** 0.053
48425 H 32.9325 112.319 112.796 H 0 **** 0.053
48426 H 31.8168 111.648 115.036 H 0 **** 0.053
48427 H 30.66 111.897 113.72 H 0 **** 0.053
48428 H 29.9607 114.003 114.527 H 0 **** 0.053
48429 H 31.7016 115.392 114.943 H 0 **** 0.053
48430 H 31.5319 114.539 117.856 H 0 **** 0.053
48431 H 31.7106 116.186 117.204 H 0 **** 0.053
48432 H 29.3816 115.962 116.257 H 0 **** 0.053
48433 H 29.3535 115.805 118.011 H 0 **** 0.053
48434 H 28.1074 113.978 116.387 H 0 **** 0.053
48435 H 28.7707 113.505 117.944 H 0 **** 0.053
48436 H 30.5287 112.493 116.934 H 0 **** 0.353
48437 H 44.2564 118.034 118.812 H 0 **** 0.053
48438 H 45.8818 116.169 118.565 H 0 **** 0.053
48439 H 43.7911 114.14 119.409 H 0 **** 0.053
48440 H 45.5385 113.996 119.388 H 0 **** 0.053
48441 H 45.1114 114.128 121.731 H 0 **** 0.053
48442 H 43.7084 115.184 121.522 H 0 **** 0.053
48443 H 46.6066 116.066 121.029 H 0 **** 0.053
48444 H 45.7253 116.41 122.532 H 0 **** 0.053
48445 H 45.8124 118.282 120.625 H 0 **** 0.053
48446 H 44.2735 117.991 121.465 H 0 **** 0.053
48447 H 40.8953 117.249 121.106 H 0 **** 0.053
48448 H 38.964 117.759 122.498 H 0 **** 0.053
48449 H 33.4366 115.223 118.162 H 0 **** 0.053
48450 H 31.5534 116.227 119.438 H 0 **** 0.053
48451 H 31.3086 117.81 121.089 H 0 **** 0.053
48452 H 30.8831 115.381 122.933 H 0 **** 0.053
48453 H 29.2947 116.177 120.457 H 0 **** 0.053
48454 H 28.6457 115.074 121.693 H 0 **** 0.053
48455 H 30.008 114.095 119.564 H 0 **** 0.053
48456 H 30.094 113.318 121.151 H 0 **** 0.053
48457 H 32.3572 113.813 119.864 H 0 **** 0.053
48458 H 32.3095 114.212 121.585 H 0 **** 0.053
48459 H 44.7888 106.69 108.671 H 0 **** 0.053
48460 H 43.1396 106.339 110.463 H 0 **** 0.053
48461 H 41.8776 107.182 109.534 H 0 **** 0.053
48462 H 43.2714 108.086 110.168 H 0 **** 0.053
48463 H 43.8 105.246 106.906 H 0 **** 0.053
48464 H 42.1659 105.576 107.529 H 0 **** 0.053
48465 H 43.3361 104.679 108.527 H 0 **** 0.053
48466 H 35.6486 114.581 112.211 H 0 **** 0.41
48467 H 36.7383 118.989 125.203 H 0 **** 0.053
48468 H 35.8424 120.329 127.25 H 0 **** 0.053
48469 H 33.8813 121.176 128.635 H 0 **** 0.053
48470 H 31.9446 122.011 130.092 H 0 **** 0.053
48471 H 29.3276 122.249 130.436 H 0 **** 0.053
48472 H 25.3087 120.529 128.121 H 0 **** 0.053
48473 H 26.9342 121.733 129.625 H 0 **** 0.053
48474 H 27.7211 116.687 122.655 H 0 **** 0.053
48475 H 26.0754 117.825 122.516 H 0 **** 0.053
48476 H 25.4163 116.603 123.619 H 0 **** 0.053
48477 H 23.5683 118.027 122.759 H 0 **** 0.053
48478 H 24.4384 119.486 123.233 H 0 **** 0.053
48479 H 23.4393 117.296 125.172 H 0 **** 0.053
48480 H 22.7071 118.91 125.024 H 0 **** 0.053
48481 C 77.307 97.1791 148.733 C.3 0 **** 0.054
48482 C 77.1045 96.726 150.208 C.3 0 **** -0.106
48483 C 76.808 95.2028 150.29 C.3 0 **** -0.053
48484 C 75.8697 94.8239 149.119 C.3 0 **** -0.053
48485 C 76.5304 95.2047 147.76 C.3 0 **** 0.054
48486 O 77.6419 96.0767 147.907 O.3 0 **** -0.32
48487 C 74.4754 95.4976 149.284 C.3 0 **** -0.053
48488 C 74.0097 95.5681 150.788 C.3 0 **** 0.107
48489 C 74.7314 94.5145 151.619 C.3 0 **** -0.106
48490 C 76.2491 94.7576 151.664 C.3 0 **** -0.106
48491 O 72.6051 95.3657 150.979 O.3 0 **** -0.32
48492 C 71.8603 96.0624 149.992 C.3 0 **** 0.107
48493 C 71.9733 95.2516 148.673 C.3 0 **** -0.053
48494 C 73.4259 94.7756 148.415 C.3 0 **** -0.106
48495 C 71.4062 95.9298 147.453 C.2 0 **** 0
48496 C 71.5448 97.4451 147.412 C.3 0 **** 0
48497 C 71.4371 98.1586 148.759 C.3 0 **** 0
48498 C 72.2144 97.546 149.917 C.3 0 **** -0.053
48499 C 71.5965 99.6642 148.685 C.3 0 **** 0
48500 C 70.6234 100.262 147.675 C.3 0 **** 0
48501 C 70.8417 99.5503 146.287 C.3 0 **** 0.16
48502 C 70.6395 98.0528 146.36 C.3 0 **** 0
48503 C 70.6839 97.3528 144.974 C.3 0 **** -0.106
48504 C 70.1235 95.9643 145.242 C.3 0 **** -0.106
48505 C 70.766 95.287 146.447 C.2 0 **** -0.1268
48506 O 70.2865 100.132 145.087 O.3 0 **** -0.32
48507 C 69.5289 101.293 145.352 C.3 0 **** 0.16
48508 C 70.1936 102.36 146.285 C.3 0 **** 0
48509 C 70.8444 101.794 147.573 C.3 0 **** 0
48510 C 71.9144 98.3179 151.176 C.2 0 **** 0
48511 C 72.457 99.7181 151.116 C.3 0 **** -0.053
48512 C 71.5533 100.388 150.042 C.3 0 **** 0
48513 C 72.3629 100.559 152.37 C.2 0 **** 0
48514 C 71.5048 100.156 153.343 C.2 0 **** 0
48515 C 70.7719 98.8227 153.326 C.3 0 **** -0.106
48516 C 71.1451 97.9024 152.176 C.2 0 **** -0.1268
48517 C 71.3807 100.928 154.633 C.3 0 **** -0.106
48518 C 71.5559 102.412 154.356 C.3 0 **** -0.106
48519 C 72.7785 102.615 153.478 C.2 0 **** 0
48520 C 73.1356 101.679 152.539 C.2 0 **** 0
48521 C 74.328 101.946 151.64 C.3 0 **** -0.106
48522 C 75.2512 103.042 152.152 C.3 0 **** -0.053
48523 C 74.4197 104.288 152.502 C.3 0 **** -0.106
48524 C 73.4581 103.957 153.649 C.3 0 **** -0.106
48525 C 70.6134 102.448 148.941 C.3 0 **** 0.147
48526 C 71.6638 101.932 149.914 C.3 0 **** -0.053
48527 C 69.373 103.638 146.49 C.3 0 **** 0
48528 C 69.9741 104.693 147.427 C.3 0 **** 0.147
48529 S 70.6435 104.263 149.015 S.3 0 **** -0.294
48530 C 69.2059 105.983 147.506 C.3 0 **** -0.053
48531 C 69.0067 106.528 146.085 C.3 0 **** 0
48532 C 68.2845 105.484 145.15 C.3 0 **** 0
48533 C 69.1258 104.194 145.06 C.3 0 **** 0
48534 C 68.1167 106.099 143.768 C.3 0 **** 0
48535 C 67.2887 107.363 143.875 C.3 0 **** 0
48536 C 67.9206 108.45 144.843 C.3 0 **** 0
48537 C 68.1314 107.809 146.264 C.3 0 **** -0.053
48538 C 66.9045 109.621 144.948 C.3 0 **** 0
48539 C 66.8742 110.299 143.595 C.3 0 **** 0.16
48540 C 66.5056 109.344 142.456 C.3 0 **** 0
48541 C 66.7968 107.874 142.549 C.3 0 **** 0
48542 C 68.5764 103.143 144.058 C.3 0 **** 0
48543 C 69.4305 101.882 143.969 C.3 0 **** -0.053
48544 C 67.7938 105.144 142.597 C.3 0 **** 0
48545 C 67.8074 103.627 142.799 C.3 0 **** 0
48546 C 66.9447 107.063 141.261 C.3 0 **** 0
48547 C 66.7491 105.565 141.56 C.3 0 **** 0
48548 C 65.7757 109.858 141.215 C.3 0 **** 0
48549 C 66.0101 108.943 139.972 C.3 0 **** 0
48550 C 65.8352 107.437 140.245 C.3 0 **** 0
48551 O 66.0877 111.465 143.701 O.3 0 **** -0.32
48552 C 67.0356 112.431 144.153 C.3 0 **** 0.107
48553 C 67.7553 111.924 145.444 C.3 0 **** -0.053
48554 C 67.0092 110.725 146.027 C.3 0 **** 0.107
48555 C 67.871 113.052 146.479 C.3 0 **** -0.106
48556 C 68.2122 114.379 145.776 C.3 0 **** -0.106
48557 C 67.0122 114.871 144.945 C.3 0 **** 0.134
48558 C 66.2125 113.689 144.333 C.3 0 **** -0.053
48559 C 65.5339 114.072 142.994 C.3 0 **** -0.106
48560 C 65.0775 115.524 143.043 C.3 0 **** -0.106
48561 C 66.2892 116.475 143.287 C.3 0 **** 0.081
48562 N 67.4266 115.836 143.946 N.3 0 **** -0.727
48563 C 67.9536 102.846 141.466 C.3 0 **** 0.16
48564 C 66.8319 103.262 140.527 C.3 0 **** 0.16
48565 C 66.9916 104.724 140.225 C.3 0 **** 0
48566 O 66.7648 102.527 139.324 O.3 0 **** -0.32
48567 C 66.8128 101.134 139.608 C.3 0 **** 0.107
48568 C 68.084 100.826 140.338 C.3 0 **** 0.107
48569 O 67.9922 101.436 141.615 O.3 0 **** -0.32
48570 C 69.3388 101.304 139.563 C.3 0 **** -0.106
48571 C 69.0966 101.324 138.026 C.3 0 **** -0.106
48572 C 68.0999 100.216 137.632 C.3 0 **** -0.106
48573 C 66.7023 100.43 138.279 C.3 0 **** -0.106
48574 C 66.0172 106.618 138.89 C.3 0 **** 0
48575 C 65.866 105.096 139.205 C.3 0 **** -0.053
48576 C 64.9889 109.324 138.888 C.3 0 **** 0
48577 C 65.1208 108.451 137.623 C.3 0 **** 0.16
48578 C 64.9783 106.996 137.85 C.3 0 **** -0.053
48579 C 65.2566 110.847 138.563 C.3 0 **** 0
48580 C 65.0612 111.732 139.861 C.3 0 **** 0
48581 C 66.1647 111.317 140.846 C.3 0 **** -0.053
48582 O 64.3001 108.799 136.556 O.3 0 **** -0.32
48583 C 64.358 110.208 136.363 C.3 0 **** 0.16
48584 C 64.1008 111.149 137.615 C.3 0 **** 0
48585 C 65.1056 113.268 139.629 C.3 0 **** -0.053
48586 C 64.1902 113.628 138.46 C.3 0 **** -0.053
48587 C 64.2632 112.629 137.245 C.3 0 **** 0
48588 C 64.6137 114.919 137.848 C.3 0 **** -0.053
48589 C 65.0321 115.903 138.908 C.3 0 **** -0.106
48590 C 66.3629 115.404 139.542 C.3 0 **** -0.106
48591 C 66.5119 113.873 139.43 C.3 0 **** -0.106
48592 C 63.1738 112.961 136.253 C.3 0 **** 0
48593 C 63.1372 111.999 135.028 C.3 0 **** 0
48594 C 63.3605 110.51 135.279 C.3 0 **** 0
48595 C 63.3654 115.342 137.078 C.3 0 **** 0
48596 C 63.1913 114.42 135.857 C.3 0 **** 0
48597 C 76.4206 103.317 151.171 C.3 0 **** -0.053
48598 C 75.9842 104.075 149.909 C.3 0 **** -0.159
48599 C 77.5662 104.063 151.865 C.3 0 **** -0.159
48600 O 67.5889 110.321 147.26 O.3 0 **** -0.57
48601 C 62.8939 109.42 134.274 C.3 0 **** -0.053
48602 C 62.4934 109.926 132.885 C.3 0 **** -0.053
48603 C 61.6644 111.217 133.007 C.3 0 **** 0
48604 C 62.3979 112.371 133.757 C.3 0 **** 0
48605 C 61.8009 113.766 133.81 C.3 0 **** 0
48606 C 60.825 114.127 132.729 C.3 0 **** 0
48607 C 60.5563 113.071 131.628 C.3 0 **** 0
48608 C 61.2669 111.696 131.608 C.3 0 **** -0.053
48609 C 59.752 113.48 130.402 C.3 0 **** -0.053
48610 C 59.4053 114.974 130.22 C.3 0 **** -0.053
48611 C 59.4899 115.902 131.471 C.3 0 **** 0
48612 C 60.723 115.63 132.372 C.3 0 **** 0
48613 C 60.7072 116.515 133.678 C.3 0 **** 0
48614 C 61.9746 116.208 134.562 C.3 0 **** 0
48615 C 61.9825 114.726 134.991 C.3 0 **** 0
48616 C 60.6728 118.022 133.268 C.3 0 **** 0
48617 C 59.3971 118.27 132.38 C.3 0 **** -0.053
48618 C 59.3995 117.396 131.111 C.3 0 **** -0.053
48619 C 63.346 116.823 136.648 C.3 0 **** -0.053
48620 C 61.9581 117.058 135.896 C.3 0 **** 0
48621 C 60.6237 118.931 134.579 C.3 0 **** 0.02
48622 C 61.7986 118.591 135.562 C.3 0 **** 0
48623 C 61.9695 119.452 136.837 C.3 0 **** -0.106
48624 C 60.9276 120.534 136.857 C.3 0 **** -0.106
48625 C 60.9045 121.266 135.52 C.3 0 **** -0.086
48626 C 60.6356 120.435 134.32 C.2 0 **** 0.379
48627 O 60.3716 120.968 133.255 O.2 0 **** -0.419
48628 H 78.1346 97.897 148.653 H 0 **** 0.053
48629 H 76.41 97.696 148.358 H 0 **** 0.053
48630 H 77.9928 96.95 150.831 H 0 **** 0.053
48631 H 76.2799 97.301 150.669 H 0 **** 0.053
48632 H 77.7667 94.688 150.115 H 0 **** 0.053
48633 H 75.6993 93.7322 149.159 H 0 **** 0.053
48634 H 75.7908 95.6406 147.066 H 0 **** 0.053
48635 H 76.9227 94.3076 147.268 H 0 **** 0.053
48636 H 74.5815 96.5213 148.885 H 0 **** 0.053
48637 H 74.2864 96.5518 151.21 H 0 **** 0.053
48638 H 74.5053 93.5262 151.176 H 0 **** 0.053
48639 H 74.2982 94.5054 152.632 H 0 **** 0.053
48640 H 76.7531 93.841 152 H 0 **** 0.053
48641 H 76.4669 95.5262 152.42 H 0 **** 0.053
48642 H 70.8134 95.984 150.292 H 0 **** 0.053
48643 H 71.3676 94.3491 148.813 H 0 **** 0.053
48644 H 73.7203 94.8308 147.344 H 0 **** 0.053
48645 H 73.4711 93.7062 148.686 H 0 **** 0.053
48646 H 73.2846 97.7 149.712 H 0 **** 0.053
48647 H 70.0548 97.9067 144.249 H 0 **** 0.053
48648 H 71.7151 97.3349 144.563 H 0 **** 0.053
48649 H 70.2069 95.3334 144.353 H 0 **** 0.053
48650 H 69.0467 96.0761 145.466 H 0 **** 0.053
48651 H 70.685 94.2045 146.444 H 0 **** 0.1268
48652 H 73.5081 99.6841 150.74 H 0 **** 0.053
48653 H 69.6544 98.9951 153.319 H 0 **** 0.053
48654 H 70.993 98.2762 154.287 H 0 **** 0.053
48655 H 70.7232 96.9021 152.204 H 0 **** 0.1268
48656 H 70.4201 100.717 155.149 H 0 **** 0.053
48657 H 72.1852 100.567 155.293 H 0 **** 0.053
48658 H 71.6345 102.99 155.298 H 0 **** 0.053
48659 H 70.6682 102.799 153.819 H 0 **** 0.053
48660 H 74.9137 101.019 151.552 H 0 **** 0.053
48661 H 73.9965 102.197 150.613 H 0 **** 0.053
48662 H 75.7044 102.669 153.093 H 0 **** 0.053
48663 H 73.8438 104.602 151.617 H 0 **** 0.053
48664 H 75.0569 105.138 152.784 H 0 **** 0.053
48665 H 72.7006 104.769 153.753 H 0 **** 0.053
48666 H 74.0277 103.937 154.605 H 0 **** 0.053
48667 H 71.5402 102.473 150.914 H 0 **** 0.053
48668 H 69.6352 106.769 148.197 H 0 **** 0.053
48669 H 68.7576 108.518 146.894 H 0 **** 0.053
48670 H 69.0143 101.081 143.29 H 0 **** 0.053
48671 H 67.7741 112.596 143.351 H 0 **** 0.053
48672 H 68.7929 111.622 145.192 H 0 **** 0.053
48673 H 65.9833 111.02 146.2 H 0 **** 0.053
48674 H 66.9053 113.16 147.02 H 0 **** 0.053
48675 H 68.6301 112.786 147.25 H 0 **** 0.053
48676 H 69.0779 114.19 145.12 H 0 **** 0.053
48677 H 68.5207 115.155 146.494 H 0 **** 0.053
48678 H 66.3328 115.391 145.639 H 0 **** 0.053
48679 H 65.414 113.406 145.049 H 0 **** 0.053
48680 H 66.2849 113.987 142.195 H 0 **** 0.053
48681 H 64.7106 113.374 142.759 H 0 **** 0.053
48682 H 64.3424 115.614 143.863 H 0 **** 0.053
48683 H 64.5377 115.807 142.123 H 0 **** 0.053
48684 H 65.9659 117.327 143.906 H 0 **** 0.053
48685 H 66.6287 116.912 142.332 H 0 **** 0.053
48686 H 68.0047 115.375 143.272 H 0 **** 0.353
48687 H 65.973 100.903 140.263 H 0 **** 0.053
48688 H 68.1661 99.7529 140.489 H 0 **** 0.053
48689 H 69.6574 102.321 139.875 H 0 **** 0.053
48690 H 70.2155 100.661 139.789 H 0 **** 0.053
48691 H 70.0527 101.216 137.475 H 0 **** 0.053
48692 H 68.6849 102.309 137.726 H 0 **** 0.053
48693 H 68.5106 99.2563 137.991 H 0 **** 0.053
48694 H 68.0077 100.139 136.533 H 0 **** 0.053
48695 H 66.1578 99.4699 138.344 H 0 **** 0.053
48696 H 66.0954 101.092 137.619 H 0 **** 0.053
48697 H 65.9948 104.513 138.229 H 0 **** 0.053
48698 H 65.0762 106.365 136.942 H 0 **** 0.053
48699 H 66.0873 112.003 141.736 H 0 **** 0.053
48700 H 64.6968 113.682 140.54 H 0 **** 0.053
48701 H 63.1496 113.665 138.838 H 0 **** 0.053
48702 H 65.4578 114.789 137.138 H 0 **** 0.053
48703 H 64.2335 115.957 139.672 H 0 **** 0.053
48704 H 65.1833 116.938 138.532 H 0 **** 0.053
48705 H 66.3993 115.694 140.611 H 0 **** 0.053
48706 H 67.2195 115.912 139.058 H 0 **** 0.053
48707 H 67.2445 113.508 140.173 H 0 **** 0.053
48708 H 66.8956 113.586 138.443 H 0 **** 0.053
48709 H 76.8182 102.334 150.853 H 0 **** 0.053
48710 H 76.8146 104.146 149.188 H 0 **** 0.053
48711 H 75.6674 105.101 150.158 H 0 **** 0.053
48712 H 75.143 103.583 149.395 H 0 **** 0.053
48713 H 77.9324 103.505 152.742 H 0 **** 0.053
48714 H 77.2378 105.055 152.211 H 0 **** 0.053
48715 H 78.417 104.208 151.182 H 0 **** 0.053
48716 H 67.0705 109.574 147.555 H 0 **** 0.41
48717 H 63.4254 108.428 134.333 H 0 **** 0.053
48718 H 61.9689 109.128 132.29 H 0 **** 0.053
48719 H 60.717 110.929 130.998 H 0 **** 0.053
48720 H 59.4822 112.713 129.632 H 0 **** 0.053
48721 H 58.6344 115.217 129.447 H 0 **** 0.053
48722 H 59.2729 119.348 132.092 H 0 **** 0.053
48723 H 58.5379 117.598 130.433 H 0 **** 0.053
48724 H 63.4247 117.522 137.558 H 0 **** 0.053
48725 H 61.9219 118.834 137.751 H 0 **** 0.053
48726 H 62.9809 119.845 136.75 H 0 **** 0.053
48727 H 61.1346 121.235 137.664 H 0 **** 0.053
48728 H 59.9375 120.082 137.068 H 0 **** 0.053
48729 H 61.8782 121.711 135.299 H 0 **** 0.053
48730 H 60.1318 122.025 135.42 H 0 **** 0.053
48731 C 57.7469 194.792 166.931 C.3 0 **** 0.054
48732 C 57.6651 195.601 168.258 C.3 0 **** -0.106
48733 C 59.0025 196.338 168.548 C.3 0 **** -0.053
48734 C 60.1709 195.398 168.164 C.3 0 **** -0.053
48735 C 60.0576 194.99 166.664 C.3 0 **** 0.054
48736 O 58.7867 195.284 166.102 O.3 0 **** -0.32
48737 C 60.2087 194.15 169.093 C.3 0 **** -0.053
48738 C 59.8142 194.489 170.582 C.3 0 **** 0.107
48739 C 60.028 195.971 170.865 C.3 0 **** -0.106
48740 C 59.1155 196.859 170.002 C.3 0 **** -0.106
48741 O 60.5548 193.761 171.567 O.3 0 **** -0.32
48742 C 60.6975 192.402 171.183 C.3 0 **** 0.107
48743 C 61.7846 192.349 170.077 C.3 0 **** -0.053
48744 C 61.5946 193.477 169.03 C.3 0 **** -0.106
48745 C 61.9462 191.012 169.4 C.2 0 **** 0
48746 C 60.673 190.194 169.236 C.3 0 **** 0
48747 C 59.6516 190.321 170.366 C.3 0 **** 0
48748 C 59.363 191.731 170.867 C.3 0 **** -0.053
48749 C 58.3887 189.507 170.163 C.3 0 **** 0
48750 C 58.7254 188.044 169.897 C.3 0 **** 0
48751 C 59.7088 187.971 168.67 C.3 0 **** 0.16
48752 C 60.9853 188.751 168.896 C.3 0 **** 0
48753 C 62.0393 188.556 167.772 C.3 0 **** -0.106
48754 C 63.3212 189.123 168.363 C.3 0 **** -0.106
48755 C 63.1297 190.502 168.983 C.2 0 **** -0.1268
48756 O 59.9354 186.708 168.006 O.3 0 **** -0.32
48757 C 59.2487 185.642 168.628 C.3 0 **** 0.16
48758 C 57.7385 185.886 168.958 C.3 0 **** 0
48759 C 57.4228 187.243 169.635 C.3 0 **** 0
48760 C 58.4155 191.655 172.036 C.2 0 **** 0
48761 C 57.0559 191.165 171.623 C.3 0 **** -0.053
48762 C 57.3257 189.676 171.263 C.3 0 **** 0
48763 C 55.9592 191.185 172.665 C.2 0 **** 0
48764 C 56.3213 191.303 173.969 C.2 0 **** 0
48765 C 57.744 191.586 174.429 C.3 0 **** -0.106
48766 C 58.7384 191.846 173.31 C.2 0 **** -0.1268
48767 C 55.2784 191.361 175.061 C.3 0 **** -0.106
48768 C 54.1048 190.469 174.684 C.3 0 **** -0.106
48769 C 53.7001 190.758 173.249 C.2 0 **** 0
48770 C 54.6359 191.116 172.311 C.2 0 **** 0
48771 C 54.2016 191.339 170.875 C.3 0 **** -0.106
48772 C 52.7024 191.544 170.712 C.3 0 **** -0.053
48773 C 51.9504 190.419 171.442 C.3 0 **** -0.106
48774 C 52.2399 190.499 172.945 C.3 0 **** -0.106
48775 C 56.4987 187.333 170.857 C.3 0 **** 0.147
48776 C 56.0746 188.782 171.044 C.3 0 **** -0.053
48777 C 57.0086 184.682 169.563 C.3 0 **** 0
48778 C 55.5349 184.891 169.932 C.3 0 **** 0.147
48779 S 54.9913 186.319 170.84 S.3 0 **** -0.294
48780 C 54.8181 183.657 170.406 C.3 0 **** -0.053
48781 C 54.9908 182.552 169.356 C.3 0 **** 0
48782 C 56.5109 182.256 169.058 C.3 0 **** 0
48783 C 57.1983 183.533 168.533 C.3 0 **** 0
48784 C 56.5987 181.148 168.018 C.3 0 **** 0
48785 C 55.9194 179.902 168.549 C.3 0 **** 0
48786 C 54.3946 180.129 168.926 C.3 0 **** 0
48787 C 54.2934 181.297 169.973 C.3 0 **** -0.053
48788 C 53.8774 178.811 169.568 C.3 0 **** 0
48789 C 53.8405 177.771 168.469 C.3 0 **** 0.16
48790 C 55.2024 177.563 167.799 C.3 0 **** 0
48791 C 56.2184 178.666 167.746 C.3 0 **** 0
48792 C 58.6681 183.326 168.079 C.3 0 **** 0
48793 C 59.3263 184.595 167.547 C.3 0 **** -0.053
48794 C 57.9487 180.957 167.291 C.3 0 **** 0
48795 C 59.094 181.951 167.497 C.3 0 **** 0
48796 C 57.2801 178.649 166.646 C.3 0 **** 0
48797 C 58.4711 179.538 167.052 C.3 0 **** 0
48798 C 55.5769 176.206 167.203 C.3 0 **** 0
48799 C 56.6654 176.33 166.091 C.3 0 **** 0
48800 C 57.8617 177.224 166.464 C.3 0 **** 0
48801 O 53.2216 176.61 168.979 O.3 0 **** -0.32
48802 C 51.8381 176.88 168.756 C.3 0 **** 0.107
48803 C 51.4424 178.251 169.395 C.3 0 **** -0.053
48804 C 52.5405 178.727 170.344 C.3 0 **** 0.107
48805 C 50.0974 178.139 170.127 C.3 0 **** -0.106
48806 C 49.1277 177.261 169.315 C.3 0 **** -0.106
48807 C 49.5877 175.792 169.333 C.3 0 **** 0.134
48808 C 51.1356 175.674 169.345 C.3 0 **** -0.053
48809 C 51.6314 174.383 168.647 C.3 0 **** -0.106
48810 C 50.6505 173.247 168.907 C.3 0 **** -0.106
48811 C 49.2347 173.606 168.362 C.3 0 **** 0.081
48812 N 48.9838 175.041 168.25 N.3 0 **** -0.727
48813 C 60.1468 181.896 166.358 C.3 0 **** 0.16
48814 C 60.6725 180.473 166.243 C.3 0 **** 0.16
48815 C 59.528 179.581 165.857 C.3 0 **** 0
48816 O 61.739 180.308 165.333 O.3 0 **** -0.32
48817 C 62.7384 181.291 165.581 C.3 0 **** 0.107
48818 C 62.1329 182.653 165.435 C.3 0 **** 0.107
48819 O 61.2142 182.82 166.502 O.3 0 **** -0.32
48820 C 61.4529 182.851 164.055 C.3 0 **** -0.106
48821 C 62.1125 181.972 162.954 C.3 0 **** -0.106
48822 C 63.6119 181.78 163.256 C.3 0 **** -0.106
48823 C 63.8456 181.021 164.593 C.3 0 **** -0.106
48824 C 58.937 177.205 165.288 C.3 0 **** 0
48825 C 60.1213 178.145 165.681 C.3 0 **** -0.053
48826 C 57.2257 174.928 165.8 C.3 0 **** 0
48827 C 58.335 174.948 164.728 C.3 0 **** 0.16
48828 C 59.4919 175.813 165.043 C.3 0 **** -0.053
48829 C 55.9915 174.061 165.331 C.3 0 **** 0
48830 C 54.89 174.006 166.467 C.3 0 **** 0
48831 C 54.3549 175.437 166.63 C.3 0 **** -0.053
48832 O 58.8236 173.707 164.336 O.3 0 **** -0.32
48833 C 57.7292 172.828 164.1 C.3 0 **** 0.16
48834 C 56.6277 172.678 165.232 C.3 0 **** 0
48835 C 53.7139 173.025 166.202 C.3 0 **** -0.053
48836 C 54.2739 171.668 165.783 C.3 0 **** -0.053
48837 C 55.4931 171.746 164.79 C.3 0 **** 0
48838 C 53.2601 170.909 164.997 C.3 0 **** -0.053
48839 C 51.8831 171.096 165.577 C.3 0 **** -0.106
48840 C 51.4401 172.565 165.324 C.3 0 **** -0.106
48841 C 52.6494 173.514 165.197 C.3 0 **** -0.106
48842 C 56.0917 170.37 164.616 C.3 0 **** 0
48843 C 57.3343 170.35 163.677 C.3 0 **** 0
48844 C 58.3429 171.489 163.799 C.3 0 **** 0
48845 C 53.7764 169.476 165.093 C.3 0 **** 0
48846 C 55.0495 169.341 164.237 C.3 0 **** 0
48847 C 52.3016 191.711 169.223 C.3 0 **** -0.053
48848 C 52.3536 190.395 168.433 C.3 0 **** -0.159
48849 C 50.916 192.353 169.088 C.3 0 **** -0.159
48850 O 52.1478 179.916 171.016 O.3 0 **** -0.57
48851 C 59.8079 171.359 163.295 C.3 0 **** -0.053
48852 C 60.093 170.156 162.389 C.3 0 **** -0.053
48853 C 59.3882 168.901 162.935 C.3 0 **** 0
48854 C 57.8418 169.054 163.072 C.3 0 **** 0
48855 C 56.9696 167.86 163.418 C.3 0 **** 0
48856 C 57.5259 166.502 163.108 C.3 0 **** 0
48857 C 58.9045 166.44 162.404 C.3 0 **** 0
48858 C 59.6977 167.712 162.02 C.3 0 **** -0.053
48859 C 59.3982 165.099 161.878 C.3 0 **** -0.053
48860 C 58.4161 163.907 161.881 C.3 0 **** -0.053
48861 C 57.1685 163.992 162.814 C.3 0 **** 0
48862 C 56.4894 165.386 162.827 C.3 0 **** 0
48863 C 55.3017 165.455 163.865 C.3 0 **** 0
48864 C 54.6415 166.885 163.846 C.3 0 **** 0
48865 C 55.6777 167.959 164.237 C.3 0 **** 0
48866 C 54.2508 164.357 163.504 C.3 0 **** 0
48867 C 54.9645 162.954 163.526 C.3 0 **** -0.053
48868 C 56.1354 162.887 162.526 C.3 0 **** -0.053
48869 C 52.7462 168.394 164.708 C.3 0 **** -0.053
48870 C 53.4726 166.986 164.907 C.3 0 **** 0
48871 C 53.0574 164.391 164.563 C.3 0 **** 0.02
48872 C 52.4295 165.825 164.68 C.3 0 **** 0
48873 C 51.1878 166.018 165.583 C.3 0 **** -0.106
48874 C 50.7856 164.697 166.176 C.3 0 **** -0.106
48875 C 50.6956 163.637 165.084 C.3 0 **** -0.086
48876 C 51.9316 163.395 164.298 C.2 0 **** 0.379
48877 O 52.0141 162.418 163.574 O.2 0 **** -0.419
48878 H 56.8149 194.884 166.357 H 0 **** 0.053
48879 H 57.8804 193.719 167.138 H 0 **** 0.053
48880 H 56.8461 196.347 168.233 H 0 **** 0.053
48881 H 57.4114 194.926 169.096 H 0 **** 0.053
48882 H 59.0406 197.199 167.861 H 0 **** 0.053
48883 H 61.1168 195.946 168.332 H 0 **** 0.053
48884 H 60.301 193.923 166.523 H 0 **** 0.053
48885 H 60.782 195.553 166.065 H 0 **** 0.053
48886 H 59.479 193.435 168.675 H 0 **** 0.053
48887 H 58.737 194.288 170.728 H 0 **** 0.053
48888 H 61.0934 196.198 170.671 H 0 **** 0.053
48889 H 59.8632 196.153 171.939 H 0 **** 0.053
48890 H 59.5005 197.888 170.008 H 0 **** 0.053
48891 H 58.117 196.898 170.46 H 0 **** 0.053
48892 H 61.1334 191.889 172.043 H 0 **** 0.053
48893 H 62.7418 192.541 170.575 H 0 **** 0.053
48894 H 61.8076 193.149 167.989 H 0 **** 0.053
48895 H 62.3382 194.261 169.258 H 0 **** 0.053
48896 H 58.8207 192.258 170.067 H 0 **** 0.053
48897 H 62.1477 187.478 167.537 H 0 **** 0.053
48898 H 61.7291 189.064 166.836 H 0 **** 0.053
48899 H 64.1186 189.141 167.616 H 0 **** 0.053
48900 H 63.6447 188.443 169.173 H 0 **** 0.053
48901 H 64.0426 191.084 169.064 H 0 **** 0.1268
48902 H 56.7374 191.711 170.703 H 0 **** 0.053
48903 H 58.121 190.737 175.073 H 0 **** 0.053
48904 H 57.734 192.495 175.095 H 0 **** 0.053
48905 H 59.7308 192.167 173.613 H 0 **** 0.1268
48906 H 55.7038 191.078 176.049 H 0 **** 0.053
48907 H 54.945 192.411 175.144 H 0 **** 0.053
48908 H 53.2547 190.611 175.381 H 0 **** 0.053
48909 H 54.4027 189.406 174.759 H 0 **** 0.053
48910 H 54.7129 192.234 170.49 H 0 **** 0.053
48911 H 54.5287 190.5 170.231 H 0 **** 0.053
48912 H 52.4496 192.498 171.22 H 0 **** 0.053
48913 H 52.2866 189.444 171.054 H 0 **** 0.053
48914 H 50.8661 190.473 171.269 H 0 **** 0.053
48915 H 51.895 189.566 173.448 H 0 **** 0.053
48916 H 51.6425 191.329 173.385 H 0 **** 0.053
48917 H 55.327 188.841 171.908 H 0 **** 0.053
48918 H 53.7314 183.798 170.687 H 0 **** 0.053
48919 H 53.2007 181.586 170.091 H 0 **** 0.053
48920 H 60.4143 184.478 167.268 H 0 **** 0.053
48921 H 51.6591 176.907 167.668 H 0 **** 0.053
48922 H 51.2999 179.002 168.591 H 0 **** 0.053
48923 H 52.7125 177.95 171.076 H 0 **** 0.053
48924 H 50.2575 177.681 171.128 H 0 **** 0.053
48925 H 49.6798 179.155 170.314 H 0 **** 0.053
48926 H 49.1256 177.642 168.281 H 0 **** 0.053
48927 H 48.0941 177.341 169.687 H 0 **** 0.053
48928 H 49.226 175.352 170.276 H 0 **** 0.053
48929 H 51.4701 175.639 170.402 H 0 **** 0.053
48930 H 51.6472 174.566 167.563 H 0 **** 0.053
48931 H 52.6607 174.137 168.963 H 0 **** 0.053
48932 H 50.6154 173.082 169.999 H 0 **** 0.053
48933 H 51.0086 172.299 168.471 H 0 **** 0.053
48934 H 48.4679 173.173 169.024 H 0 **** 0.053
48935 H 49.0753 173.137 167.376 H 0 **** 0.053
48936 H 49.3342 175.392 167.381 H 0 **** 0.353
48937 H 63.0715 181.169 166.611 H 0 **** 0.053
48938 H 62.9067 183.409 165.544 H 0 **** 0.053
48939 H 60.3697 182.608 164.087 H 0 **** 0.053
48940 H 61.485 183.917 163.745 H 0 **** 0.053
48941 H 61.9615 182.419 161.95 H 0 **** 0.053
48942 H 61.6167 180.981 162.921 H 0 **** 0.053
48943 H 64.0664 182.783 163.337 H 0 **** 0.053
48944 H 64.1203 181.26 162.424 H 0 **** 0.053
48945 H 64.8485 181.253 164.997 H 0 **** 0.053
48946 H 63.8333 179.925 164.394 H 0 **** 0.053
48947 H 60.8908 178.125 164.834 H 0 **** 0.053
48948 H 60.2906 175.833 164.272 H 0 **** 0.053
48949 H 53.5094 175.391 167.372 H 0 **** 0.053
48950 H 53.2327 172.928 167.166 H 0 **** 0.053
48951 H 54.5846 171.127 166.698 H 0 **** 0.053
48952 H 53.2368 171.221 163.931 H 0 **** 0.053
48953 H 51.9272 170.883 166.662 H 0 **** 0.053
48954 H 51.1154 170.414 165.15 H 0 **** 0.053
48955 H 50.7966 172.91 166.158 H 0 **** 0.053
48956 H 50.8122 172.615 164.414 H 0 **** 0.053
48957 H 52.3342 174.558 165.379 H 0 **** 0.053
48958 H 53.0671 173.485 164.182 H 0 **** 0.053
48959 H 53.029 192.408 168.765 H 0 **** 0.053
48960 H 52.1774 190.575 167.361 H 0 **** 0.053
48961 H 51.5792 189.695 168.788 H 0 **** 0.053
48962 H 53.3275 189.889 168.527 H 0 **** 0.053
48963 H 50.876 193.328 169.6 H 0 **** 0.053
48964 H 50.1384 191.71 169.528 H 0 **** 0.053
48965 H 50.6575 192.52 168.031 H 0 **** 0.053
48966 H 52.8829 180.146 171.581 H 0 **** 0.41
48967 H 60.3421 172.323 163.063 H 0 **** 0.053
48968 H 61.198 170.003 162.243 H 0 **** 0.053
48969 H 60.795 167.517 161.873 H 0 **** 0.053
48970 H 60.4229 165.019 161.434 H 0 **** 0.053
48971 H 58.859 162.896 161.701 H 0 **** 0.053
48972 H 54.256 162.105 163.331 H 0 **** 0.053
48973 H 56.6174 161.884 162.478 H 0 **** 0.053
48974 H 51.8118 168.453 165.375 H 0 **** 0.053
48975 H 51.3728 166.769 166.37 H 0 **** 0.053
48976 H 50.4354 166.419 164.906 H 0 **** 0.053
48977 H 49.8278 164.793 166.684 H 0 **** 0.053
48978 H 51.5303 164.401 166.942 H 0 **** 0.053
48979 H 49.9692 163.921 164.318 H 0 **** 0.053
48980 H 50.4754 162.63 165.431 H 0 **** 0.053
48981 C 68.7378 177.11 104.844 C.3 0 **** 0.054
48982 C 69.3923 176.976 106.249 C.3 0 **** -0.106
48983 C 70.6095 176.01 106.209 C.3 0 **** -0.053
48984 C 70.258 174.818 105.288 C.3 0 **** -0.053
48985 C 69.8918 175.333 103.863 C.3 0 **** 0.054
48986 O 69.6474 176.732 103.823 O.3 0 **** -0.32
48987 C 69.108 173.964 105.898 C.3 0 **** -0.053
48988 C 69.1999 173.856 107.468 C.3 0 **** 0.107
48989 C 70.6249 174.122 107.938 C.3 0 **** -0.106
48990 C 71.0795 175.555 107.613 C.3 0 **** -0.106
48991 O 68.8142 172.581 107.994 O.3 0 **** -0.32
48992 C 67.6535 172.099 107.336 C.3 0 **** 0.107
48993 C 68.0975 171.582 105.941 C.3 0 **** -0.053
48994 C 69.0785 172.565 105.251 C.3 0 **** -0.106
48995 C 66.9745 171.204 105.01 C.2 0 **** 0
48996 C 65.7056 172.036 105.129 C.3 0 **** 0
48997 C 65.3552 172.516 106.537 C.3 0 **** 0
48998 C 66.4972 173.096 107.362 C.3 0 **** -0.053
48999 C 64.0961 173.356 106.618 C.3 0 **** 0
49000 C 62.9173 172.625 105.984 C.3 0 **** 0
49001 C 63.3041 172.234 104.509 C.3 0 **** 0.16
49002 C 64.5376 171.361 104.439 C.3 0 **** 0
49003 C 64.8396 170.827 103.012 C.3 0 **** -0.106
49004 C 65.8694 169.73 103.237 C.3 0 **** -0.106
49005 C 67.0206 170.172 104.134 C.2 0 **** -0.1268
49006 O 62.2747 171.825 103.581 O.3 0 **** -0.32
49007 C 60.9995 171.768 104.183 C.3 0 **** 0.16
49008 C 60.5783 173.01 105.037 C.3 0 **** 0
49009 C 61.6552 173.526 106.025 C.3 0 **** 0
49010 C 65.9919 173.422 108.743 C.2 0 **** 0
49011 C 64.9935 174.545 108.724 C.3 0 **** -0.053
49012 C 63.7667 173.897 108.02 C.3 0 **** 0
49013 C 64.5178 175.082 110.055 C.2 0 **** 0
49014 C 64.7308 174.322 111.162 C.2 0 **** 0
49015 C 65.5667 173.051 111.165 C.3 0 **** -0.106
49016 C 66.257 172.735 109.848 C.2 0 **** -0.1268
49017 C 64.3106 174.809 112.529 C.3 0 **** -0.106
49018 C 63.0233 175.611 112.404 C.3 0 **** -0.106
49019 C 63.166 176.609 111.268 C.2 0 **** 0
49020 C 63.9143 176.31 110.157 C.2 0 **** 0
49021 C 63.9852 177.308 109.017 C.3 0 **** -0.106
49022 C 63.5505 178.714 109.405 C.3 0 **** -0.053
49023 C 62.1892 178.65 110.118 C.3 0 **** -0.106
49024 C 62.3312 177.862 111.425 C.3 0 **** -0.106
49025 C 61.3083 173.874 107.479 C.3 0 **** 0.147
49026 C 62.4406 174.704 108.066 C.3 0 **** -0.053
49027 C 59.1593 172.944 105.613 C.3 0 **** 0
49028 C 58.721 174.126 106.487 C.3 0 **** 0.147
49029 S 59.7593 174.777 107.774 S.3 0 **** -0.294
49030 C 57.2841 174.091 106.929 C.3 0 **** -0.053
49031 C 56.3892 173.931 105.693 C.3 0 **** 0
49032 C 56.7661 172.65 104.855 C.3 0 **** 0
49033 C 58.231 172.748 104.382 C.3 0 **** 0
49034 C 55.8328 172.558 103.656 C.3 0 **** 0
49035 C 54.3993 172.463 104.139 C.3 0 **** 0
49036 C 53.9549 173.692 105.038 C.3 0 **** 0
49037 C 54.9381 173.816 106.259 C.3 0 **** -0.053
49038 C 52.5205 173.39 105.555 C.3 0 **** 0
49039 C 51.5991 173.451 104.357 C.3 0 **** 0.16
49040 C 52.0027 172.483 103.241 C.3 0 **** 0
49041 C 53.43 172.051 103.066 C.3 0 **** 0
49042 C 58.6728 171.601 103.434 C.3 0 **** 0
49043 C 60.1183 171.723 102.961 C.3 0 **** -0.053
49044 C 56.2484 171.623 102.499 C.3 0 **** 0
49045 C 57.6226 170.949 102.494 C.3 0 **** 0
49046 C 53.8964 171.57 101.691 C.3 0 **** 0
49047 C 55.1864 170.742 101.835 C.3 0 **** 0
49048 C 50.9465 171.882 102.313 C.3 0 **** 0
49049 C 51.5526 171.434 100.945 C.3 0 **** 0
49050 C 52.8516 170.615 101.059 C.3 0 **** 0
49051 O 50.2686 173.345 104.815 O.3 0 **** -0.32
49052 C 49.9436 174.7 105.122 C.3 0 **** 0.107
49053 C 51.0008 175.304 106.102 C.3 0 **** -0.053
49054 C 51.859 174.192 106.702 C.3 0 **** 0.107
49055 C 50.3121 176.119 107.206 C.3 0 **** -0.106
49056 C 49.139 176.922 106.614 C.3 0 **** -0.106
49057 C 47.9966 175.976 106.198 C.3 0 **** 0.134
49058 C 48.5352 174.619 105.672 C.3 0 **** -0.053
49059 C 47.5938 173.983 104.619 C.3 0 **** -0.106
49060 C 46.1437 174.288 104.972 C.3 0 **** -0.106
49061 C 45.8972 175.827 105.008 C.3 0 **** 0.081
49062 N 47.1003 176.619 105.258 N.3 0 **** -0.727
49063 C 58.0512 170.473 101.08 C.3 0 **** 0.16
49064 C 56.9834 169.54 100.531 C.3 0 **** 0.16
49065 C 55.7083 170.32 100.388 C.3 0 **** 0
49066 O 57.3105 168.924 99.3032 O.3 0 **** -0.32
49067 C 58.6118 168.353 99.3839 C.3 0 **** 0.107
49068 C 59.6006 169.43 99.7084 C.3 0 **** 0.107
49069 O 59.3312 169.862 101.032 O.3 0 **** -0.32
49070 C 59.5437 170.606 98.6983 C.3 0 **** -0.106
49071 C 59.0595 170.14 97.2951 C.3 0 **** -0.106
49072 C 59.5009 168.685 97.0381 C.3 0 **** -0.106
49073 C 58.8632 167.693 98.0517 C.3 0 **** -0.106
49074 C 53.324 170.148 99.6108 C.3 0 **** 0
49075 C 54.6583 169.349 99.7563 C.3 0 **** -0.053
49076 C 50.5237 170.546 100.225 C.3 0 **** 0
49077 C 51.0431 170.026 98.8692 C.3 0 **** 0.16
49078 C 52.301 169.251 98.9372 C.3 0 **** -0.053
49079 C 49.2377 171.444 100.04 C.3 0 **** 0
49080 C 48.6886 171.921 101.446 C.3 0 **** 0
49081 C 49.7588 172.847 102.045 C.3 0 **** -0.053
49082 O 50.1339 169.298 98.11 O.3 0 **** -0.32
49083 C 48.8869 169.984 98.0908 C.3 0 **** 0.16
49084 C 48.2512 170.426 99.4759 C.3 0 **** 0
49085 C 47.3158 172.649 101.409 C.3 0 **** -0.053
49086 C 46.3317 171.828 100.579 C.3 0 **** -0.053
49087 C 46.9461 171.205 99.2695 C.3 0 **** 0
49088 C 45.2463 172.7 100.048 C.3 0 **** -0.053
49089 C 44.8207 173.713 101.078 C.3 0 **** -0.106
49090 C 45.9786 174.734 101.269 C.3 0 **** -0.106
49091 C 47.3499 174.116 100.927 C.3 0 **** -0.106
49092 C 45.953 170.251 98.6499 C.3 0 **** 0
49093 C 46.4861 169.552 97.3642 C.3 0 **** 0
49094 C 47.9372 169.078 97.356 C.3 0 **** 0
49095 C 44.1574 171.691 99.694 C.3 0 **** 0
49096 C 44.5964 170.89 98.4541 C.3 0 **** 0
49097 C 63.5857 179.684 108.196 C.3 0 **** -0.053
49098 C 62.4395 179.449 107.201 C.3 0 **** -0.159
49099 C 63.5946 181.147 108.654 C.3 0 **** -0.159
49100 O 52.7522 174.714 107.676 O.3 0 **** -0.57
49101 C 48.4489 167.984 96.3767 C.3 0 **** -0.053
49102 C 47.508 167.639 95.2177 C.3 0 **** -0.053
49103 C 46.0551 167.556 95.7215 C.3 0 **** 0
49104 C 45.5428 168.868 96.3919 C.3 0 **** 0
49105 C 44.0819 169.028 96.7753 C.3 0 **** 0
49106 C 43.0914 168.164 96.0506 C.3 0 **** 0
49107 C 43.6348 167.253 94.9214 C.3 0 **** 0
49108 C 45.136 167.198 94.5483 C.3 0 **** -0.053
49109 C 42.6421 166.525 94.0248 C.3 0 **** -0.053
49110 C 41.1504 166.913 94.1255 C.3 0 **** -0.053
49111 C 40.6737 167.642 95.4203 C.3 0 **** 0
49112 C 41.6566 168.733 95.9236 C.3 0 **** 0
49113 C 41.1864 169.365 97.2914 C.3 0 **** 0
49114 C 42.21 170.466 97.7652 C.3 0 **** 0
49115 C 43.6042 169.843 97.9826 C.3 0 **** 0
49116 C 39.7632 169.98 97.1016 C.3 0 **** 0
49117 C 38.7867 168.843 96.619 C.3 0 **** -0.053
49118 C 39.2492 168.212 95.2914 C.3 0 **** -0.053
49119 C 42.758 172.303 99.4784 C.3 0 **** -0.053
49120 C 41.7768 171.087 99.1535 C.3 0 **** 0
49121 C 39.2593 170.597 98.4847 C.3 0 **** 0.02
49122 C 40.2944 171.619 99.0733 C.3 0 **** 0
49123 C 39.9196 172.396 100.358 C.3 0 **** -0.106
49124 C 38.5319 172.016 100.791 C.3 0 **** -0.106
49125 C 37.5698 172.112 99.612 C.3 0 **** -0.086
49126 C 37.8938 171.277 98.4278 C.2 0 **** 0.379
49127 O 37.0645 171.118 97.5486 O.2 0 **** -0.419
49128 H 68.4515 178.151 104.642 H 0 **** 0.053
49129 H 67.812 176.517 104.787 H 0 **** 0.053
49130 H 69.7279 177.956 106.64 H 0 **** 0.053
49131 H 68.6442 176.617 106.98 H 0 **** 0.053
49132 H 71.4307 176.563 105.724 H 0 **** 0.053
49133 H 71.1442 174.159 105.23 H 0 **** 0.053
49134 H 69.0293 174.782 103.45 H 0 **** 0.053
49135 H 70.7265 175.16 103.175 H 0 **** 0.053
49136 H 68.1687 174.472 105.62 H 0 **** 0.053
49137 H 68.5627 174.635 107.925 H 0 **** 0.053
49138 H 71.2831 173.381 107.447 H 0 **** 0.053
49139 H 70.6843 173.92 109.019 H 0 **** 0.053
49140 H 72.1744 175.612 107.685 H 0 **** 0.053
49141 H 70.6824 176.239 108.377 H 0 **** 0.053
49142 H 67.3401 171.21 107.888 H 0 **** 0.053
49143 H 68.6543 170.655 106.118 H 0 **** 0.053
49144 H 68.9053 172.659 104.156 H 0 **** 0.053
49145 H 70.093 172.143 105.361 H 0 **** 0.053
49146 H 66.7773 174.057 106.904 H 0 **** 0.053
49147 H 63.9149 170.422 102.555 H 0 **** 0.053
49148 H 65.2041 171.637 102.346 H 0 **** 0.053
49149 H 66.2454 169.348 102.285 H 0 **** 0.053
49150 H 65.3598 168.893 103.749 H 0 **** 0.053
49151 H 67.9273 169.587 104.014 H 0 **** 0.1268
49152 H 65.3884 175.37 108.083 H 0 **** 0.053
49153 H 64.9305 172.168 111.474 H 0 **** 0.053
49154 H 66.365 173.145 111.955 H 0 **** 0.053
49155 H 66.9519 171.9 109.858 H 0 **** 0.1268
49156 H 64.1969 173.966 113.246 H 0 **** 0.053
49157 H 65.1219 175.452 112.915 H 0 **** 0.053
49158 H 62.7725 176.116 113.358 H 0 **** 0.053
49159 H 62.1798 174.932 112.173 H 0 **** 0.053
49160 H 65.0248 177.358 108.66 H 0 **** 0.053
49161 H 63.3821 176.963 108.155 H 0 **** 0.053
49162 H 64.293 179.091 110.139 H 0 **** 0.053
49163 H 61.4577 178.15 109.464 H 0 **** 0.053
49164 H 61.793 179.653 110.329 H 0 **** 0.053
49165 H 61.3222 177.613 111.828 H 0 **** 0.053
49166 H 62.8201 178.51 112.187 H 0 **** 0.053
49167 H 62.1516 175.028 109.125 H 0 **** 0.053
49168 H 56.9484 174.954 107.579 H 0 **** 0.053
49169 H 54.7399 174.802 106.788 H 0 **** 0.053
49170 H 60.4757 170.866 102.319 H 0 **** 0.053
49171 H 49.9303 175.277 104.181 H 0 **** 0.053
49172 H 51.652 176.012 105.549 H 0 **** 0.053
49173 H 51.2004 173.477 107.175 H 0 **** 0.053
49174 H 49.9282 175.431 107.991 H 0 **** 0.053
49175 H 51.0536 176.781 107.709 H 0 **** 0.053
49176 H 49.5228 177.465 105.735 H 0 **** 0.053
49177 H 48.7659 177.681 107.319 H 0 **** 0.053
49178 H 47.4134 175.758 107.107 H 0 **** 0.053
49179 H 48.6055 173.92 106.53 H 0 **** 0.053
49180 H 47.804 174.452 103.646 H 0 **** 0.053
49181 H 47.7894 172.901 104.52 H 0 **** 0.053
49182 H 45.9413 173.839 105.961 H 0 **** 0.053
49183 H 45.4475 173.797 104.27 H 0 **** 0.053
49184 H 45.1611 176.061 105.794 H 0 **** 0.053
49185 H 45.4382 176.163 104.062 H 0 **** 0.053
49186 H 47.5905 176.784 104.402 H 0 **** 0.353
49187 H 58.6042 167.633 100.201 H 0 **** 0.053
49188 H 60.606 169.018 99.6935 H 0 **** 0.053
49189 H 58.8694 171.418 99.0435 H 0 **** 0.053
49190 H 60.5355 171.096 98.6022 H 0 **** 0.053
49191 H 59.4369 170.818 96.5028 H 0 **** 0.053
49192 H 57.9538 170.2 97.2428 H 0 **** 0.053
49193 H 60.5983 168.646 97.1497 H 0 **** 0.053
49194 H 59.2697 168.378 96.0017 H 0 **** 0.053
49195 H 59.4793 166.779 98.1337 H 0 **** 0.053
49196 H 57.8698 167.369 97.6648 H 0 **** 0.053
49197 H 54.9911 169.014 98.714 H 0 **** 0.053
49198 H 52.6788 168.878 97.9622 H 0 **** 0.053
49199 H 49.3376 173.26 103.005 H 0 **** 0.053
49200 H 46.9929 172.651 102.441 H 0 **** 0.053
49201 H 45.9387 171.013 101.219 H 0 **** 0.053
49202 H 45.5563 173.244 99.1299 H 0 **** 0.053
49203 H 44.6086 173.182 102.025 H 0 **** 0.053
49204 H 43.8961 174.27 100.811 H 0 **** 0.053
49205 H 45.9935 175.089 102.319 H 0 **** 0.053
49206 H 45.7911 175.631 100.648 H 0 **** 0.053
49207 H 48.1589 174.703 101.398 H 0 **** 0.053
49208 H 47.5328 174.139 99.8453 H 0 **** 0.053
49209 H 64.538 179.505 107.661 H 0 **** 0.053
49210 H 62.566 180.074 106.303 H 0 **** 0.053
49211 H 61.4683 179.707 107.655 H 0 **** 0.053
49212 H 62.3834 178.401 106.868 H 0 **** 0.053
49213 H 64.4451 181.35 109.325 H 0 **** 0.053
49214 H 62.6708 181.395 109.2 H 0 **** 0.053
49215 H 63.6743 181.832 107.796 H 0 **** 0.053
49216 H 53.2469 173.963 108 H 0 **** 0.41
49217 H 49.5556 167.982 96.1668 H 0 **** 0.053
49218 H 47.8352 166.703 94.6851 H 0 **** 0.053
49219 H 45.4221 166.254 94.0075 H 0 **** 0.053
49220 H 43.0137 165.804 93.2537 H 0 **** 0.053
49221 H 40.4232 166.229 93.6212 H 0 **** 0.053
49222 H 37.7266 169.199 96.5151 H 0 **** 0.053
49223 H 38.5411 167.447 94.8961 H 0 **** 0.053
49224 H 42.3986 172.86 100.417 H 0 **** 0.053
49225 H 40.652 172.221 101.165 H 0 **** 0.053
49226 H 39.9936 173.441 100.059 H 0 **** 0.053
49227 H 38.2013 172.667 101.598 H 0 **** 0.053
49228 H 38.548 170.983 101.194 H 0 **** 0.053
49229 H 37.5513 173.124 99.2012 H 0 **** 0.053
49230 H 36.5516 171.788 99.8165 H 0 **** 0.053
49231 C 1.37564 180.726 97.7692 C.3 0 **** 0.054
49232 C 0.889309 179.377 97.1658 C.3 0 **** -0.106
49233 C 0.332205 178.438 98.2715 C.3 0 **** -0.053
49234 C 1.23575 178.565 99.5216 C.3 0 **** -0.053
49235 C 1.27997 180.047 100.001 C.3 0 **** 0.054
49236 O 0.778565 180.959 99.0342 O.3 0 **** -0.32
49237 C 2.66411 178.016 99.2329 C.3 0 **** -0.053
49238 C 2.6495 176.752 98.291 C.3 0 **** 0.107
49239 C 1.29036 176.064 98.3422 C.3 0 **** -0.106
49240 C 0.168124 176.969 97.8065 C.3 0 **** -0.106
49241 O 3.63334 175.764 98.617 O.3 0 **** -0.32
49242 C 4.87403 176.377 98.9301 C.3 0 **** 0.107
49243 C 4.74569 176.97 100.359 C.3 0 **** -0.053
49244 C 3.39721 177.71 100.554 C.3 0 **** -0.106
49245 C 5.8994 177.834 100.801 C.2 0 **** 0
49246 C 6.56911 178.655 99.7084 C.3 0 **** 0
49247 C 6.63553 177.999 98.3299 C.3 0 **** 0
49248 C 5.36224 177.324 97.8357 C.3 0 **** -0.053
49249 C 7.29281 178.85 97.2615 C.3 0 **** 0
49250 C 8.67532 179.31 97.7115 C.3 0 **** 0
49251 C 8.53156 180.055 99.0911 C.3 0 **** 0.16
49252 C 7.91363 179.185 100.164 C.3 0 **** 0
49253 C 7.91657 179.84 101.572 C.3 0 **** -0.106
49254 C 7.58927 178.693 102.516 C.3 0 **** -0.106
49255 C 6.37924 177.882 102.066 C.2 0 **** -0.1268
49256 O 9.62087 180.865 99.5862 O.3 0 **** -0.32
49257 C 10.7511 180.821 98.7418 C.3 0 **** 0.16
49258 C 10.4873 181.037 97.2145 C.3 0 **** 0
49259 C 9.3039 180.226 96.629 C.3 0 **** 0
49260 C 5.63995 176.653 96.5155 C.2 0 **** 0
49261 C 5.92816 177.651 95.4298 C.3 0 **** -0.053
49262 C 7.30944 178.227 95.8549 C.3 0 **** 0
49263 C 6.07263 177.127 94.0181 C.2 0 **** 0
49264 C 6.28275 175.795 93.8509 C.2 0 **** 0
49265 C 6.21017 174.78 94.9819 C.3 0 **** -0.106
49266 C 5.76835 175.345 96.3218 C.2 0 **** -0.1268
49267 C 6.40555 175.197 92.4686 C.3 0 **** -0.106
49268 C 7.10501 176.19 91.5516 C.3 0 **** -0.106
49269 C 6.46711 177.558 91.7191 C.2 0 **** 0
49270 C 5.96832 177.96 92.9329 C.2 0 **** 0
49271 C 5.39209 179.356 93.0751 C.3 0 **** -0.106
49272 C 5.05333 180.018 91.7475 C.3 0 **** -0.053
49273 C 6.2627 179.916 90.8025 C.3 0 **** -0.106
49274 C 6.54915 178.443 90.4932 C.3 0 **** -0.106
49275 C 9.43414 179.46 95.3061 C.3 0 **** 0.147
49276 C 8.04104 179.107 94.806 C.3 0 **** -0.053
49277 C 11.7459 181.057 96.3401 C.3 0 **** 0
49278 C 11.5271 181.232 94.832 C.3 0 **** 0.147
49279 S 10.3118 180.286 93.9461 S.3 0 **** -0.294
49280 C 12.7849 181.373 94.02 C.3 0 **** -0.053
49281 C 13.6289 182.511 94.6097 C.3 0 **** 0
49282 C 13.9511 182.275 96.1352 C.3 0 **** 0
49283 C 12.6374 182.181 96.9381 C.3 0 **** 0
49284 C 14.794 183.437 96.6422 C.3 0 **** 0
49285 C 16.0796 183.514 95.8433 C.3 0 **** 0
49286 C 15.8424 183.698 94.2854 C.3 0 **** 0
49287 C 14.9406 182.521 93.7618 C.3 0 **** -0.053
49288 C 17.2341 183.631 93.5962 C.3 0 **** 0
49289 C 17.9889 184.876 94.0088 C.3 0 **** 0.16
49290 C 18.1276 185.016 95.5277 C.3 0 **** 0
49291 C 17.1168 184.412 96.4592 C.3 0 **** 0
49292 C 12.8346 182.082 98.4743 C.3 0 **** 0
49293 C 11.5251 182.009 99.2534 C.3 0 **** -0.053
49294 C 14.9047 183.623 98.1717 C.3 0 **** 0
49295 C 14.0644 182.771 99.1256 C.3 0 **** 0
49296 C 16.9512 185.003 97.8596 C.3 0 **** 0
49297 C 16.2632 183.979 98.7822 C.3 0 **** 0
49298 C 19.3366 185.728 96.1364 C.3 0 **** 0
49299 C 19.0339 186.284 97.5642 C.3 0 **** 0
49300 C 18.3333 185.285 98.5033 C.3 0 **** 0
49301 O 19.1911 184.93 93.2719 O.3 0 **** -0.32
49302 C 18.7833 185.586 92.0722 C.3 0 **** 0.107
49303 C 17.5723 184.837 91.428 C.3 0 **** -0.053
49304 C 17.4029 183.461 92.0671 C.3 0 **** 0.107
49305 C 17.7573 184.716 89.9083 C.3 0 **** -0.106
49306 C 18.3552 186.018 89.3447 C.3 0 **** -0.106
49307 C 19.8173 186.18 89.8012 C.3 0 **** 0.134
49308 C 20.0406 185.613 91.2289 C.3 0 **** -0.053
49309 C 21.168 186.358 91.9861 C.3 0 **** -0.106
49310 C 22.2636 186.765 91.0096 C.3 0 **** -0.106
49311 C 21.6931 187.702 89.901 C.3 0 **** 0.081
49312 N 20.2562 187.555 89.6765 N.3 0 **** -0.727
49313 C 13.9287 183.407 100.535 C.3 0 **** 0.16
49314 C 15.3193 183.65 101.101 C.3 0 **** 0.16
49315 C 16.0192 184.639 100.214 C.3 0 **** 0
49316 O 15.3434 184.101 102.438 O.3 0 **** -0.32
49317 C 14.5141 183.269 103.241 C.3 0 **** 0.107
49318 C 13.1168 183.303 102.703 C.3 0 **** 0.107
49319 O 13.1375 182.655 101.442 O.3 0 **** -0.32
49320 C 12.5616 184.747 102.597 C.3 0 **** -0.106
49321 C 13.2067 185.694 103.65 C.3 0 **** -0.106
49322 C 13.5652 184.903 104.924 C.3 0 **** -0.106
49323 C 14.625 183.799 104.648 C.3 0 **** -0.106
49324 C 18.1556 185.937 99.9464 C.3 0 **** 0
49325 C 17.4138 184.915 100.866 C.3 0 **** -0.053
49326 C 20.3659 186.668 98.2298 C.3 0 **** 0
49327 C 20.1765 187.204 99.6622 C.3 0 **** 0.16
49328 C 19.4872 186.282 100.588 C.3 0 **** -0.053
49329 C 21.0158 187.759 97.2902 C.3 0 **** 0
49330 C 21.2555 187.169 95.8398 C.3 0 **** 0
49331 C 19.8667 186.885 95.2466 C.3 0 **** -0.053
49332 O 21.3255 187.663 100.293 O.3 0 **** -0.32
49333 C 22.0485 188.5 99.3979 C.3 0 **** 0.16
49334 C 22.3785 187.938 97.9517 C.3 0 **** 0
49335 C 22.0664 188.084 94.8794 C.3 0 **** -0.053
49336 C 23.3264 188.571 95.5916 C.3 0 **** -0.053
49337 C 23.1058 188.983 97.0959 C.3 0 **** 0
49338 C 23.8134 189.838 94.975 C.3 0 **** -0.053
49339 C 23.6716 189.794 93.4765 C.3 0 **** -0.106
49340 C 22.1564 189.837 93.1263 C.3 0 **** -0.106
49341 C 21.2883 189.269 94.2679 C.3 0 **** -0.106
49342 C 24.4423 189.24 97.751 C.3 0 **** 0
49343 C 24.3259 189.622 99.2566 C.3 0 **** 0
49344 C 23.3258 188.846 100.112 C.3 0 **** 0
49345 C 25.2622 189.899 95.452 C.3 0 **** 0
49346 C 25.2834 190.216 96.9585 C.3 0 **** 0
49347 C 4.52209 181.462 91.9422 C.3 0 **** -0.053
49348 C 5.62211 182.463 92.3257 C.3 0 **** -0.159
49349 C 3.77306 181.953 90.6977 C.3 0 **** -0.159
49350 O 16.3747 182.726 91.4173 O.3 0 **** -0.57
49351 C 23.4285 188.79 101.663 C.3 0 **** -0.053
49352 C 24.4099 189.777 102.304 C.3 0 **** -0.053
49353 C 25.7068 189.849 101.476 C.3 0 **** 0
49354 C 25.4842 190.273 99.9902 C.3 0 **** 0
49355 C 26.6627 190.582 99.0827 C.3 0 **** 0
49356 C 27.9507 190.967 99.7498 C.3 0 **** 0
49357 C 27.9401 191.102 101.293 C.3 0 **** 0
49358 C 26.6729 190.836 102.142 C.3 0 **** -0.053
49359 C 29.1592 191.695 101.986 C.3 0 **** -0.053
49360 C 30.2463 192.354 101.108 C.3 0 **** -0.053
49361 C 30.294 191.967 99.5971 C.3 0 **** 0
49362 C 28.8968 191.878 98.9288 C.3 0 **** 0
49363 C 28.9876 191.381 97.4331 C.3 0 **** 0
49364 C 27.5496 191.305 96.7937 C.3 0 **** 0
49365 C 26.6676 190.31 97.5743 C.3 0 **** 0
49366 C 29.899 192.362 96.6284 C.3 0 **** 0
49367 C 31.3148 192.407 97.315 C.3 0 **** -0.053
49368 C 31.23 192.876 98.7803 C.3 0 **** -0.053
49369 C 26.1541 190.889 94.6751 C.3 0 **** -0.053
49370 C 27.6154 190.773 95.3059 C.3 0 **** 0
49371 C 30.0277 191.855 95.1201 C.3 0 **** 0.02
49372 C 28.62 191.646 94.4588 C.3 0 **** 0
49373 C 28.5555 191.26 92.9619 C.3 0 **** -0.106
49374 C 29.9467 191.196 92.3974 C.3 0 **** -0.106
49375 C 30.7188 192.46 92.7588 C.3 0 **** -0.086
49376 C 30.8568 192.755 94.2071 C.2 0 **** 0.379
49377 O 31.6462 193.603 94.585 O.2 0 **** -0.419
49378 H 1.09115 181.569 97.1255 H 0 **** 0.053
49379 H 2.47416 180.746 97.841 H 0 **** 0.053
49380 H 0.103904 179.53 96.3999 H 0 **** 0.053
49381 H 1.72018 178.883 96.6283 H 0 **** 0.053
49382 H -0.658739 178.833 98.5474 H 0 **** 0.053
49383 H 0.80751 177.927 100.317 H 0 **** 0.053
49384 H 2.30038 180.336 100.307 H 0 **** 0.053
49385 H 0.644991 180.175 100.884 H 0 **** 0.053
49386 H 3.21226 178.835 98.7371 H 0 **** 0.053
49387 H 2.80454 177.074 97.245 H 0 **** 0.053
49388 H 1.09777 175.782 99.3945 H 0 **** 0.053
49389 H 1.34884 175.122 97.7748 H 0 **** 0.053
49390 H -0.80333 176.573 98.1335 H 0 **** 0.053
49391 H 0.166821 176.926 96.7081 H 0 **** 0.053
49392 H 5.5993 175.565 99.0172 H 0 **** 0.053
49393 H 4.73907 176.118 101.048 H 0 **** 0.053
49394 H 3.49141 178.639 101.157 H 0 **** 0.053
49395 H 2.73915 177.038 101.134 H 0 **** 0.053
49396 H 4.62948 178.118 97.6269 H 0 **** 0.053
49397 H 8.91591 180.267 101.789 H 0 **** 0.053
49398 H 7.1866 180.675 101.631 H 0 **** 0.053
49399 H 7.45392 179.056 103.537 H 0 **** 0.053
49400 H 8.45699 178.008 102.522 H 0 **** 0.053
49401 H 5.89523 177.326 102.864 H 0 **** 0.1268
49402 H 5.16443 178.465 95.4736 H 0 **** 0.053
49403 H 7.20878 174.264 95.1057 H 0 **** 0.053
49404 H 5.47972 173.971 94.6949 H 0 **** 0.053
49405 H 5.59457 174.623 97.1143 H 0 **** 0.1268
49406 H 6.93636 174.221 92.4912 H 0 **** 0.053
49407 H 5.38247 174.998 92.102 H 0 **** 0.053
49408 H 7.06975 175.853 90.4965 H 0 **** 0.053
49409 H 8.17504 176.264 91.8253 H 0 **** 0.053
49410 H 4.46967 179.294 93.6715 H 0 **** 0.053
49411 H 6.08142 180.009 93.6449 H 0 **** 0.053
49412 H 4.22703 179.432 91.2954 H 0 **** 0.053
49413 H 7.14286 180.369 91.2863 H 0 **** 0.053
49414 H 6.09659 180.467 89.8657 H 0 **** 0.053
49415 H 7.54742 178.345 90.0062 H 0 **** 0.053
49416 H 5.80354 178.076 89.752 H 0 **** 0.053
49417 H 8.13164 178.602 93.7836 H 0 **** 0.053
49418 H 12.6388 181.497 92.9051 H 0 **** 0.053
49419 H 14.6128 182.758 92.6998 H 0 **** 0.053
49420 H 11.6492 181.875 100.368 H 0 **** 0.053
49421 H 18.4957 186.621 92.3225 H 0 **** 0.053
49422 H 16.648 185.431 91.5847 H 0 **** 0.053
49423 H 18.3367 182.925 91.9656 H 0 **** 0.053
49424 H 18.4426 183.869 89.6847 H 0 **** 0.053
49425 H 16.7853 184.464 89.4254 H 0 **** 0.053
49426 H 17.7428 186.852 89.7245 H 0 **** 0.053
49427 H 18.2944 186.053 88.2456 H 0 **** 0.053
49428 H 20.436 185.577 89.1172 H 0 **** 0.053
49429 H 20.341 184.549 91.1339 H 0 **** 0.053
49430 H 20.7423 187.279 92.4109 H 0 **** 0.053
49431 H 21.5494 185.746 92.8225 H 0 **** 0.053
49432 H 22.6724 185.84 90.564 H 0 **** 0.053
49433 H 23.1082 187.247 91.5315 H 0 **** 0.053
49434 H 22.2128 187.501 88.9504 H 0 **** 0.053
49435 H 21.912 188.756 90.1428 H 0 **** 0.053
49436 H 19.7444 188.118 90.3265 H 0 **** 0.353
49437 H 14.8922 182.25 103.158 H 0 **** 0.053
49438 H 12.4612 182.734 103.357 H 0 **** 0.053
49439 H 12.731 185.185 101.591 H 0 **** 0.053
49440 H 11.4578 184.759 102.718 H 0 **** 0.053
49441 H 12.532 186.542 103.883 H 0 **** 0.053
49442 H 14.1275 186.146 103.23 H 0 **** 0.053
49443 H 12.6411 184.421 105.288 H 0 **** 0.053
49444 H 13.9139 185.58 105.725 H 0 **** 0.053
49445 H 14.5604 183.005 105.415 H 0 **** 0.053
49446 H 15.6426 184.244 104.741 H 0 **** 0.053
49447 H 17.2906 185.388 101.901 H 0 **** 0.053
49448 H 19.3463 186.663 101.62 H 0 **** 0.053
49449 H 20.0246 186.55 94.1827 H 0 **** 0.053
49450 H 22.3495 187.426 94.0688 H 0 **** 0.053
49451 H 24.0831 187.764 95.5424 H 0 **** 0.053
49452 H 23.2641 190.727 95.353 H 0 **** 0.053
49453 H 24.1301 188.857 93.1079 H 0 **** 0.053
49454 H 24.1825 190.628 92.9482 H 0 **** 0.053
49455 H 21.9694 189.251 92.2041 H 0 **** 0.053
49456 H 21.8564 190.876 92.8933 H 0 **** 0.053
49457 H 20.2958 188.976 93.8804 H 0 **** 0.053
49458 H 21.112 190.027 95.0424 H 0 **** 0.053
49459 H 3.78992 181.432 92.7715 H 0 **** 0.053
49460 H 5.18945 183.446 92.5684 H 0 **** 0.053
49461 H 6.33016 182.604 91.4929 H 0 **** 0.053
49462 H 6.20189 182.132 93.2023 H 0 **** 0.053
49463 H 2.94201 181.277 90.4399 H 0 **** 0.053
49464 H 4.44601 182.005 89.8274 H 0 **** 0.053
49465 H 3.35042 182.956 90.8587 H 0 **** 0.053
49466 H 16.3316 181.886 91.8721 H 0 **** 0.41
49467 H 22.4774 188.561 102.221 H 0 **** 0.053
49468 H 24.6004 189.527 103.385 H 0 **** 0.053
49469 H 26.9028 190.602 103.218 H 0 **** 0.053
49470 H 29.2012 191.731 103.104 H 0 **** 0.053
49471 H 31.2179 192.585 101.611 H 0 **** 0.053
49472 H 32.0461 193.051 96.7569 H 0 **** 0.053
49473 H 32.2262 192.977 99.2699 H 0 **** 0.053
49474 H 26.1857 190.631 93.5553 H 0 **** 0.053
49475 H 28.0194 190.307 92.8123 H 0 **** 0.053
49476 H 27.9587 192.054 92.5155 H 0 **** 0.053
49477 H 29.9049 191.079 91.3159 H 0 **** 0.053
49478 H 30.4608 190.3 92.7998 H 0 **** 0.053
49479 H 30.2169 193.351 92.373 H 0 **** 0.053
49480 H 31.7612 192.472 92.4483 H 0 **** 0.053
49481 C 76.9776 94.0197 160.739 C.3 0 **** 0.054
49482 C 76.4021 94.2395 159.31 C.3 0 **** -0.106
49483 C 77.5419 94.3832 158.264 C.3 0 **** -0.053
49484 C 78.6781 95.226 158.891 C.3 0 **** -0.053
49485 C 79.1864 94.5486 160.199 C.3 0 **** 0.054
49486 O 78.3103 93.5389 160.68 O.3 0 **** -0.32
49487 C 78.2071 96.6873 159.151 C.3 0 **** -0.053
49488 C 77.2415 97.2232 158.026 C.3 0 **** 0.107
49489 C 77.4367 96.4355 156.736 C.3 0 **** -0.106
49490 C 77.0622 94.9537 156.905 C.3 0 **** -0.106
49491 O 77.4226 98.6071 157.706 O.3 0 **** -0.32
49492 C 77.6013 99.3745 158.886 C.3 0 **** 0.107
49493 C 79.0495 99.1225 159.384 C.3 0 **** -0.053
49494 C 79.4235 97.6191 159.324 C.3 0 **** -0.106
49495 C 79.3728 99.7015 160.738 C.2 0 **** 0
49496 C 78.2298 99.7156 161.743 C.3 0 **** 0
49497 C 76.837 99.9536 161.161 C.3 0 **** 0
49498 C 76.4817 99.1692 159.905 C.3 0 **** -0.053
49499 C 75.7197 99.9453 162.186 C.3 0 **** 0
49500 C 76.0131 100.929 163.313 C.3 0 **** 0
49501 C 77.4188 100.579 163.931 C.3 0 **** 0.16
49502 C 78.5348 100.631 162.911 C.3 0 **** 0
49503 C 79.9489 100.455 163.529 C.3 0 **** -0.106
49504 C 80.895 100.883 162.417 C.3 0 **** -0.106
49505 C 80.5727 100.229 161.079 C.2 0 **** -0.1268
49506 O 77.8008 101.137 165.208 O.3 0 **** -0.32
49507 C 76.8268 102.02 165.722 C.3 0 **** 0.16
49508 C 75.3481 101.508 165.709 C.3 0 **** 0
49509 C 74.8871 100.86 164.378 C.3 0 **** 0
49510 C 75.1213 99.6016 159.424 C.2 0 **** 0
49511 C 74.034 99.2018 160.381 C.3 0 **** -0.053
49512 C 74.3057 100.121 161.606 C.3 0 **** 0
49513 C 72.6021 99.4341 159.951 C.2 0 **** 0
49514 C 72.3779 100.286 158.917 C.2 0 **** 0
49515 C 73.4859 100.885 158.064 C.3 0 **** -0.106
49516 C 74.8813 100.371 158.369 C.2 0 **** -0.1268
49517 C 70.976 100.541 158.412 C.3 0 **** -0.106
49518 C 70.0071 100.511 159.586 C.3 0 **** -0.106
49519 C 70.2841 99.279 160.43 C.2 0 **** 0
49520 C 71.5586 98.7879 160.563 C.2 0 **** 0
49521 C 71.8041 97.591 161.463 C.3 0 **** -0.106
49522 C 70.5439 96.8073 161.8 C.3 0 **** -0.053
49523 C 69.4591 97.7755 162.302 C.3 0 **** -0.106
49524 C 69.0802 98.748 161.179 C.3 0 **** -0.106
49525 C 73.539 101.216 163.739 C.3 0 **** 0.147
49526 C 73.1997 100.162 162.695 C.3 0 **** -0.053
49527 C 74.3307 102.463 166.343 C.3 0 **** 0
49528 C 72.8642 102.014 166.317 C.3 0 **** 0.147
49529 S 72.1056 101.372 164.844 S.3 0 **** -0.294
49530 C 71.9115 102.911 167.059 C.3 0 **** -0.053
49531 C 72.4255 103.102 168.492 C.3 0 **** 0
49532 C 73.8952 103.673 168.519 C.3 0 **** 0
49533 C 74.8464 102.702 167.79 C.3 0 **** 0
49534 C 74.3276 103.842 169.968 C.3 0 **** 0
49535 C 73.3831 104.797 170.669 C.3 0 **** 0
49536 C 71.8699 104.322 170.64 C.3 0 **** 0
49537 C 71.4278 104.11 169.146 C.3 0 **** -0.053
49538 C 71.018 105.455 171.277 C.3 0 **** 0
49539 C 71.3694 105.495 172.749 C.3 0 **** 0.16
49540 C 72.8641 105.714 173.001 C.3 0 **** 0
49541 C 73.8937 105.28 171.999 C.3 0 **** 0
49542 C 76.345 103.097 167.869 C.3 0 **** 0
49543 C 77.2726 102.117 167.159 C.3 0 **** -0.053
49544 C 75.8371 104.014 170.247 C.3 0 **** 0
49545 C 76.8623 103.856 169.122 C.3 0 **** 0
49546 C 75.3184 104.994 172.474 C.3 0 **** 0
49547 C 76.2901 105.05 171.28 C.3 0 **** 0
49548 C 73.3421 106.438 174.261 C.3 0 **** 0
49549 C 74.8093 106.058 174.637 C.3 0 **** 0
49550 C 75.7998 106.091 173.458 C.3 0 **** 0
49551 O 70.496 106.4 173.389 O.3 0 **** -0.32
49552 C 69.3707 105.576 173.689 C.3 0 **** 0.107
49553 C 68.8567 104.865 172.396 C.3 0 **** -0.053
49554 C 69.4759 105.511 171.158 C.3 0 **** 0.107
49555 C 67.3231 104.91 172.326 C.3 0 **** -0.106
49556 C 66.7258 104.675 173.726 C.3 0 **** -0.106
49557 C 67.0086 105.881 174.641 C.3 0 **** 0.134
49558 C 68.3844 106.529 174.33 C.3 0 **** -0.053
49559 C 69.0206 107.184 175.581 C.3 0 **** -0.106
49560 C 67.9311 107.787 176.459 C.3 0 **** -0.106
49561 C 66.9228 106.69 176.918 C.3 0 **** 0.081
49562 N 66.8677 105.523 176.038 N.3 0 **** -0.727
49563 C 78.2938 103.573 169.651 C.3 0 **** 0.16
49564 C 78.6955 104.689 170.603 C.3 0 **** 0.16
49565 C 77.7572 104.665 171.775 C.3 0 **** 0
49566 O 80.0314 104.629 171.055 O.3 0 **** -0.32
49567 C 80.9064 104.452 169.946 C.3 0 **** 0.107
49568 C 80.5396 103.189 169.229 C.3 0 **** 0.107
49569 O 79.2691 103.398 168.635 O.3 0 **** -0.32
49570 C 80.5379 101.956 170.17 C.3 0 **** -0.106
49571 C 81.5301 102.132 171.355 C.3 0 **** -0.106
49572 C 82.7318 102.993 170.918 C.3 0 **** -0.106
49573 C 82.3033 104.432 170.513 C.3 0 **** -0.106
49574 C 77.2701 105.768 173.981 C.3 0 **** 0
49575 C 78.2451 105.777 172.76 C.3 0 **** -0.053
49576 C 75.3201 107.063 175.682 C.3 0 **** 0
49577 C 76.7791 106.789 176.099 C.3 0 **** 0.16
49578 C 77.7566 106.792 174.99 C.3 0 **** -0.053
49579 C 74.3386 106.938 176.913 C.3 0 **** 0
49580 C 72.8556 107.28 176.476 C.3 0 **** 0
49581 C 72.4254 106.183 175.489 C.3 0 **** -0.053
49582 O 77.2811 107.595 177.114 O.3 0 **** -0.32
49583 C 76.326 107.67 178.166 C.3 0 **** 0.16
49584 C 74.8366 108.076 177.799 C.3 0 **** 0
49585 C 71.8291 107.381 177.638 C.3 0 **** -0.053
49586 C 72.3981 108.276 178.737 C.3 0 **** -0.053
49587 C 73.9278 108.049 179.034 C.3 0 **** 0
49588 C 71.7606 107.959 180.046 C.3 0 **** -0.053
49589 C 70.2891 107.69 179.875 C.3 0 **** -0.106
49590 C 70.1234 106.344 179.111 C.3 0 **** -0.106
49591 C 71.3455 106.036 178.222 C.3 0 **** -0.106
49592 C 74.4246 109.122 179.974 C.3 0 **** 0
49593 C 75.9433 109.004 180.299 C.3 0 **** 0
49594 C 76.8929 108.648 179.158 C.3 0 **** 0
49595 C 72.0626 109.209 180.869 C.3 0 **** 0
49596 C 73.5633 109.235 181.212 C.3 0 **** 0
49597 C 70.8375 95.6299 162.765 C.3 0 **** -0.053
49598 C 71.1126 96.0854 164.206 C.3 0 **** -0.159
49599 C 69.7042 94.5975 162.745 C.3 0 **** -0.159
49600 O 68.9349 104.947 169.97 O.3 0 **** -0.57
49601 C 78.4163 108.952 179.22 C.3 0 **** -0.053
49602 C 78.9604 109.342 180.598 C.3 0 **** -0.053
49603 C 77.9867 110.304 181.302 C.3 0 **** 0
49604 C 76.5503 109.724 181.488 C.3 0 **** 0
49605 C 75.5169 110.46 182.323 C.3 0 **** 0
49606 C 76.0354 111.422 183.351 C.3 0 **** 0
49607 C 77.5722 111.529 183.516 C.3 0 **** 0
49608 C 78.5577 110.686 182.671 C.3 0 **** -0.053
49609 C 78.129 112.323 184.69 C.3 0 **** -0.053
49610 C 77.1442 112.807 185.777 C.3 0 **** -0.053
49611 C 75.629 112.872 185.412 C.3 0 **** 0
49612 C 75.1303 111.659 184.585 C.3 0 **** 0
49613 C 73.6224 111.821 184.147 C.3 0 **** 0
49614 C 73.1576 110.569 183.311 C.3 0 **** 0
49615 C 74.0118 110.43 182.034 C.3 0 **** 0
49616 C 72.7402 111.991 185.425 C.3 0 **** 0
49617 C 73.2539 113.245 186.225 C.3 0 **** -0.053
49618 C 74.7304 113.098 186.641 C.3 0 **** -0.053
49619 C 71.2106 109.36 182.146 C.3 0 **** -0.053
49620 C 71.6594 110.73 182.83 C.3 0 **** 0
49621 C 71.2149 112.189 184.998 C.3 0 **** 0.02
49622 C 70.7211 111.03 184.063 C.3 0 **** 0
49623 C 69.2332 111.003 183.639 C.3 0 **** -0.106
49624 C 68.5053 112.149 184.283 C.3 0 **** -0.106
49625 C 68.8043 112.188 185.778 C.3 0 **** -0.086
49626 C 70.2329 112.318 186.159 C.2 0 **** 0.379
49627 O 70.5354 112.588 187.309 O.2 0 **** -0.419
49628 H 76.3942 93.2664 161.286 H 0 **** 0.053
49629 H 76.9182 94.9472 161.329 H 0 **** 0.053
49630 H 75.7395 93.4065 159.003 H 0 **** 0.053
49631 H 75.7568 95.1375 159.298 H 0 **** 0.053
49632 H 77.944 93.3704 158.099 H 0 **** 0.053
49633 H 79.5025 95.2863 158.157 H 0 **** 0.053
49634 H 79.376 95.2976 160.988 H 0 **** 0.053
49635 H 80.1423 94.046 160.015 H 0 **** 0.053
49636 H 77.6707 96.6682 160.116 H 0 **** 0.053
49637 H 76.1931 97.0666 158.34 H 0 **** 0.053
49638 H 78.4968 96.5406 156.438 H 0 **** 0.053
49639 H 76.8423 96.9093 155.939 H 0 **** 0.053
49640 H 77.4923 94.3744 156.077 H 0 **** 0.053
49641 H 75.971 94.8483 156.824 H 0 **** 0.053
49642 H 77.5799 100.42 158.573 H 0 **** 0.053
49643 H 79.7122 99.639 158.681 H 0 **** 0.053
49644 H 80.0345 97.2853 160.191 H 0 **** 0.053
49645 H 80.0601 97.4775 158.433 H 0 **** 0.053
49646 H 76.382 98.1121 160.194 H 0 **** 0.053
49647 H 80.0564 101.105 164.42 H 0 **** 0.053
49648 H 80.1154 99.4107 163.865 H 0 **** 0.053
49649 H 81.9345 100.697 162.699 H 0 **** 0.053
49650 H 80.7803 101.975 162.282 H 0 **** 0.053
49651 H 81.4078 100.199 160.385 H 0 **** 0.1268
49652 H 74.189 98.1372 160.682 H 0 **** 0.053
49653 H 73.4744 102.013 158.141 H 0 **** 0.053
49654 H 73.279 100.649 156.986 H 0 **** 0.053
49655 H 75.6683 100.689 157.691 H 0 **** 0.1268
49656 H 70.9098 101.5 157.854 H 0 **** 0.053
49657 H 70.7296 99.7352 157.697 H 0 **** 0.053
49658 H 68.9554 100.534 159.237 H 0 **** 0.053
49659 H 70.1527 101.41 160.215 H 0 **** 0.053
49660 H 72.5046 96.911 160.956 H 0 **** 0.053
49661 H 72.3042 97.9014 162.401 H 0 **** 0.053
49662 H 70.1787 96.3604 160.852 H 0 **** 0.053
49663 H 69.846 98.341 163.164 H 0 **** 0.053
49664 H 68.5633 97.2408 162.648 H 0 **** 0.053
49665 H 68.4754 99.5878 161.594 H 0 **** 0.053
49666 H 68.4241 98.2216 160.45 H 0 **** 0.053
49667 H 72.1613 100.384 162.269 H 0 **** 0.053
49668 H 70.8253 102.594 167.044 H 0 **** 0.053
49669 H 70.4188 103.587 169.136 H 0 **** 0.053
49670 H 78.3606 102.419 167.154 H 0 **** 0.053
49671 H 69.68 104.823 174.434 H 0 **** 0.053
49672 H 69.1377 103.792 172.429 H 0 **** 0.053
49673 H 69.25 106.568 171.181 H 0 **** 0.053
49674 H 66.9978 105.904 171.95 H 0 **** 0.053
49675 H 66.9533 104.162 171.588 H 0 **** 0.053
49676 H 67.1972 103.766 174.136 H 0 **** 0.053
49677 H 65.643 104.478 173.68 H 0 **** 0.053
49678 H 66.2404 106.639 174.419 H 0 **** 0.053
49679 H 68.227 107.325 173.573 H 0 **** 0.053
49680 H 69.5166 106.394 176.164 H 0 **** 0.053
49681 H 69.7895 107.921 175.29 H 0 **** 0.053
49682 H 67.4164 108.562 175.863 H 0 **** 0.053
49683 H 68.3607 108.312 177.329 H 0 **** 0.053
49684 H 65.9122 107.125 176.977 H 0 **** 0.053
49685 H 67.1637 106.355 177.942 H 0 **** 0.053
49686 H 67.5882 104.873 176.28 H 0 **** 0.353
49687 H 80.7527 105.292 169.269 H 0 **** 0.053
49688 H 81.2521 103.005 168.429 H 0 **** 0.053
49689 H 79.5298 101.757 170.591 H 0 **** 0.053
49690 H 80.79 101.03 169.612 H 0 **** 0.053
49691 H 81.8634 101.147 171.739 H 0 **** 0.053
49692 H 81.0151 102.628 172.203 H 0 **** 0.053
49693 H 83.1905 102.503 170.041 H 0 **** 0.053
49694 H 83.5027 103.029 171.709 H 0 **** 0.053
49695 H 83.0511 104.879 169.832 H 0 **** 0.053
49696 H 82.2855 105.073 171.424 H 0 **** 0.053
49697 H 79.2991 105.547 173.141 H 0 **** 0.053
49698 H 78.8076 106.592 175.285 H 0 **** 0.053
49699 H 71.342 106.369 175.241 H 0 **** 0.053
49700 H 70.9741 107.869 177.191 H 0 **** 0.053
49701 H 72.2385 109.33 178.438 H 0 **** 0.053
49702 H 72.2241 107.076 180.536 H 0 **** 0.053
49703 H 69.8446 108.522 179.297 H 0 **** 0.053
49704 H 69.7252 107.628 180.831 H 0 **** 0.053
49705 H 69.2155 106.384 178.477 H 0 **** 0.053
49706 H 69.9546 105.523 179.834 H 0 **** 0.053
49707 H 71.0718 105.303 177.441 H 0 **** 0.053
49708 H 72.1547 105.582 178.809 H 0 **** 0.053
49709 H 71.7472 95.1211 162.393 H 0 **** 0.053
49710 H 71.4304 95.2359 164.831 H 0 **** 0.053
49711 H 70.2052 96.5153 164.66 H 0 **** 0.053
49712 H 71.905 96.8491 164.259 H 0 **** 0.053
49713 H 69.5303 94.2153 161.727 H 0 **** 0.053
49714 H 68.7615 95.0398 163.104 H 0 **** 0.053
49715 H 69.9402 93.7366 163.39 H 0 **** 0.053
49716 H 69.3699 105.4 169.25 H 0 **** 0.41
49717 H 79.0775 108.328 178.556 H 0 **** 0.053
49718 H 80.004 109.757 180.528 H 0 **** 0.053
49719 H 79.5907 111.128 182.633 H 0 **** 0.053
49720 H 79.2342 112.475 184.784 H 0 **** 0.053
49721 H 77.5344 113.565 186.501 H 0 **** 0.053
49722 H 72.6291 113.465 187.132 H 0 **** 0.053
49723 H 75.1 113.945 187.264 H 0 **** 0.053
49724 H 70.0887 109.392 181.897 H 0 **** 0.053
49725 H 69.1244 111.028 182.541 H 0 **** 0.053
49726 H 68.8817 110.034 183.99 H 0 **** 0.053
49727 H 67.4339 112.05 184.118 H 0 **** 0.053
49728 H 68.8205 113.097 183.801 H 0 **** 0.053
49729 H 68.5043 111.256 186.263 H 0 **** 0.053
49730 H 68.3721 113.029 186.316 H 0 **** 0.053
49731 C 20.7463 129.311 134.088 C.3 0 **** 0.054
49732 C 19.4664 130.11 134.469 C.3 0 **** -0.106
49733 C 18.286 129.153 134.795 C.3 0 **** -0.053
49734 C 18.3193 127.976 133.79 C.3 0 **** -0.053
49735 C 19.6904 127.24 133.874 C.3 0 **** 0.054
49736 O 20.6774 127.982 134.577 O.3 0 **** -0.32
49737 C 18.0259 128.472 132.343 C.3 0 **** -0.053
49738 C 16.9506 129.624 132.303 C.3 0 **** 0.107
49739 C 16.0874 129.591 133.559 C.3 0 **** -0.106
49740 C 16.9097 129.863 134.829 C.3 0 **** -0.106
49741 O 16.0639 129.562 131.181 O.3 0 **** -0.32
49742 C 16.7772 129.242 129.997 C.3 0 **** 0.107
49743 C 17.0955 127.724 130.048 C.3 0 **** -0.053
49744 C 17.6015 127.29 131.448 C.3 0 **** -0.106
49745 C 18.0189 127.224 128.967 C.2 0 **** 0
49746 C 19.0976 128.199 128.514 C.3 0 **** 0
49747 C 18.7009 129.674 128.511 C.3 0 **** 0
49748 C 17.9535 130.181 129.739 C.3 0 **** -0.053
49749 C 19.8024 130.619 128.072 C.3 0 **** 0
49750 C 20.3616 130.203 126.716 C.3 0 **** 0
49751 C 20.835 128.704 126.807 C.3 0 **** 0.16
49752 C 19.7196 127.763 127.203 C.3 0 **** 0
49753 C 20.1195 126.263 127.135 C.3 0 **** -0.106
49754 C 18.7945 125.521 127.225 C.3 0 **** -0.106
49755 C 17.9152 126.013 128.37 C.2 0 **** -0.1268
49756 O 21.6872 128.158 125.776 O.3 0 **** -0.32
49757 C 21.9419 129.083 124.741 C.3 0 **** 0.16
49758 C 22.3773 130.52 125.182 C.3 0 **** 0
49759 C 21.5254 131.147 126.314 C.3 0 **** 0
49760 C 17.5612 131.619 129.519 C.2 0 **** 0
49761 C 18.7594 132.524 129.464 C.3 0 **** -0.053
49762 C 19.4358 132.112 128.125 C.3 0 **** 0
49763 C 18.5084 134.014 129.403 C.2 0 **** 0
49764 C 17.2652 134.437 129.054 C.2 0 **** 0
49765 C 16.0716 133.508 128.889 C.3 0 **** -0.106
49766 C 16.3352 132.057 129.256 C.2 0 **** -0.1268
49767 C 16.9334 135.911 129.002 C.3 0 **** -0.106
49768 C 18.1533 136.684 128.523 C.3 0 **** -0.106
49769 C 19.3738 136.221 129.299 C.2 0 **** 0
49770 C 19.4913 134.918 129.715 C.2 0 **** 0
49771 C 20.7518 134.479 130.436 C.3 0 **** -0.106
49772 C 21.5787 135.633 130.985 C.3 0 **** -0.053
49773 C 21.8038 136.674 129.875 C.3 0 **** -0.106
49774 C 20.457 137.268 129.448 C.3 0 **** -0.106
49775 C 21.0209 132.593 126.229 C.3 0 **** 0.147
49776 C 20.5732 133.038 127.614 C.3 0 **** -0.053
49777 C 22.7168 131.473 124.031 C.3 0 **** 0
49778 C 23.1143 132.902 124.422 C.3 0 **** 0.147
49779 S 22.1764 133.846 125.599 S.3 0 **** -0.294
49780 C 23.5598 133.771 123.279 C.3 0 **** -0.053
49781 C 24.6843 133.053 122.521 C.3 0 **** 0
49782 C 24.2384 131.626 122.019 C.3 0 **** 0
49783 C 23.8322 130.752 123.224 C.3 0 **** 0
49784 C 25.3995 130.985 121.273 C.3 0 **** 0
49785 C 25.7852 131.855 120.094 C.3 0 **** 0
49786 C 26.1976 133.33 120.509 C.3 0 **** 0
49787 C 25.0159 133.986 121.313 C.3 0 **** -0.053
49788 C 26.4384 134.128 119.197 C.3 0 **** 0
49789 C 27.6852 133.557 118.558 C.3 0 **** 0.16
49790 C 27.5818 132.054 118.283 C.3 0 **** 0
49791 C 26.697 131.171 119.114 C.3 0 **** 0
49792 C 23.5009 129.28 122.861 C.3 0 **** 0
49793 C 23.1185 128.427 124.065 C.3 0 **** -0.053
49794 C 25.3362 129.46 121.031 C.3 0 **** 0
49795 C 24.2278 128.614 121.662 C.3 0 **** 0
49796 C 27.0124 129.677 119.205 C.3 0 **** 0
49797 C 25.7632 128.905 119.669 C.3 0 **** 0
49798 C 28.3366 131.423 117.112 C.3 0 **** 0
49799 C 28.5958 129.899 117.331 C.3 0 **** 0
49800 C 27.3662 129.104 117.809 C.3 0 **** 0
49801 O 28.0262 134.364 117.452 O.3 0 **** -0.32
49802 C 28.8159 135.388 118.055 C.3 0 **** 0.107
49803 C 28.0308 136.06 119.228 C.3 0 **** -0.053
49804 C 26.5553 135.671 119.166 C.3 0 **** 0.107
49805 C 28.1959 137.587 119.185 C.3 0 **** -0.106
49806 C 29.6438 137.949 118.807 C.3 0 **** -0.106
49807 C 29.922 137.588 117.336 C.3 0 **** 0.134
49808 C 29.1555 136.31 116.903 C.3 0 **** -0.053
49809 C 29.906 135.521 115.801 C.3 0 **** -0.106
49810 C 30.6187 136.491 114.867 C.3 0 **** -0.106
49811 C 31.6441 137.362 115.655 C.3 0 **** 0.081
49812 N 31.3451 137.495 117.079 N.3 0 **** -0.727
49813 C 24.5904 127.106 121.728 C.3 0 **** 0.16
49814 C 24.9196 126.617 120.326 C.3 0 **** 0.16
49815 C 26.1308 127.362 119.843 C.3 0 **** 0
49816 O 25.136 125.226 120.22 O.3 0 **** -0.32
49817 C 24.0745 124.524 120.858 C.3 0 **** 0.107
49818 C 24.0103 124.935 122.297 C.3 0 **** 0.107
49819 O 23.5954 126.291 122.327 O.3 0 **** -0.32
49820 C 25.3626 124.732 123.028 C.3 0 **** -0.106
49821 C 26.1943 123.578 122.397 C.3 0 **** -0.106
49822 C 25.2544 122.501 121.819 C.3 0 **** -0.106
49823 C 24.3676 123.057 120.669 C.3 0 **** -0.106
49824 C 27.7326 127.557 117.915 C.3 0 **** 0
49825 C 26.4778 126.783 118.432 C.3 0 **** -0.053
49826 C 29.0365 129.283 115.993 C.3 0 **** 0
49827 C 29.29 127.766 116.099 C.3 0 **** 0.16
49828 C 28.138 126.972 116.575 C.3 0 **** -0.053
49829 C 30.3494 130.056 115.577 C.3 0 **** 0
49830 C 30.0543 131.604 115.419 C.3 0 **** 0
49831 C 29.6899 132.127 116.817 C.3 0 **** -0.053
49832 O 29.7877 127.153 114.955 O.3 0 **** -0.32
49833 C 30.853 127.938 114.431 C.3 0 **** 0.16
49834 C 30.5956 129.484 114.185 C.3 0 **** 0
49835 C 31.2198 132.443 114.824 C.3 0 **** -0.053
49836 C 31.7451 131.756 113.565 C.3 0 **** -0.053
49837 C 31.8603 130.189 113.679 C.3 0 **** 0
49838 C 33.1523 132.168 113.298 C.3 0 **** -0.053
49839 C 33.345 133.633 113.585 C.3 0 **** -0.106
49840 C 33.2416 133.849 115.123 C.3 0 **** -0.106
49841 C 32.3753 132.765 115.796 C.3 0 **** -0.106
49842 C 32.1811 129.607 112.323 C.3 0 **** 0
49843 C 32.2765 128.052 112.324 C.3 0 **** 0
49844 C 31.2507 127.272 113.142 C.3 0 **** 0
49845 C 33.3266 131.804 111.826 C.3 0 **** 0
49846 C 33.3831 130.271 111.689 C.3 0 **** 0
49847 C 22.8828 135.137 131.662 C.3 0 **** -0.053
49848 C 23.9431 134.666 130.656 C.3 0 **** -0.159
49849 C 23.4724 136.209 132.587 C.3 0 **** -0.159
49850 O 25.8092 136.36 120.16 O.3 0 **** -0.57
49851 C 30.9351 125.775 112.868 C.3 0 **** -0.053
49852 C 31.9226 125.046 111.952 C.3 0 **** -0.053
49853 C 32.3172 125.944 110.767 C.3 0 **** 0
49854 C 32.9512 127.304 111.189 C.3 0 **** 0
49855 C 33.5575 128.232 110.152 C.3 0 **** 0
49856 C 34.0089 127.607 108.865 C.3 0 **** 0
49857 C 33.8472 126.073 108.719 C.3 0 **** 0
49858 C 33.2962 125.189 109.863 C.3 0 **** -0.053
49859 C 34.5145 125.375 107.542 C.3 0 **** -0.053
49860 C 35.417 126.211 106.61 C.3 0 **** -0.053
49861 C 35.3186 127.766 106.678 C.3 0 **** 0
49862 C 35.1588 128.324 108.116 C.3 0 **** 0
49863 C 34.9392 129.888 108.12 C.3 0 **** 0
49864 C 34.7806 130.414 109.597 C.3 0 **** 0
49865 C 33.5564 129.761 110.27 C.3 0 **** 0
49866 C 36.1568 130.569 107.419 C.3 0 **** 0
49867 C 36.2764 130 105.955 C.3 0 **** -0.053
49868 C 36.4743 128.471 105.945 C.3 0 **** -0.053
49869 C 34.5464 132.456 111.142 C.3 0 **** -0.053
49870 C 34.5232 131.974 109.621 C.3 0 **** 0
49871 C 35.9372 132.15 107.386 C.3 0 **** 0.02
49872 C 35.655 132.725 108.819 C.3 0 **** 0
49873 C 35.525 134.257 108.989 C.3 0 **** -0.106
49874 C 35.7466 134.932 107.665 C.3 0 **** -0.106
49875 C 37.0229 134.409 107.016 C.3 0 **** -0.086
49876 C 37.0824 132.947 106.767 C.2 0 **** 0.379
49877 O 37.9538 132.484 106.051 O.2 0 **** -0.419
49878 H 21.6407 129.766 134.535 H 0 **** 0.053
49879 H 20.9028 129.324 132.998 H 0 **** 0.053
49880 H 19.6405 130.77 135.341 H 0 **** 0.053
49881 H 19.1885 130.792 133.645 H 0 **** 0.053
49882 H 18.4912 128.732 135.792 H 0 **** 0.053
49883 H 17.5038 127.278 134.056 H 0 **** 0.053
49884 H 20.0586 126.968 132.87 H 0 **** 0.053
49885 H 19.5794 126.3 134.427 H 0 **** 0.053
49886 H 18.9847 128.852 131.95 H 0 **** 0.053
49887 H 17.4646 130.603 132.295 H 0 **** 0.053
49888 H 15.6062 128.596 133.608 H 0 **** 0.053
49889 H 15.2722 130.323 133.446 H 0 **** 0.053
49890 H 16.3365 129.537 135.708 H 0 **** 0.053
49891 H 17.0549 130.947 134.937 H 0 **** 0.053
49892 H 16.0685 129.362 129.175 H 0 **** 0.053
49893 H 16.1455 127.203 129.883 H 0 **** 0.053
49894 H 18.4189 126.538 131.405 H 0 **** 0.053
49895 H 16.7586 126.792 131.959 H 0 **** 0.053
49896 H 18.6653 130.183 130.578 H 0 **** 0.053
49897 H 20.6335 126.051 126.177 H 0 **** 0.053
49898 H 20.8247 125.996 127.949 H 0 **** 0.053
49899 H 18.9571 124.443 127.298 H 0 **** 0.053
49900 H 18.242 125.708 126.286 H 0 **** 0.053
49901 H 17.1724 125.294 128.7 H 0 **** 0.1268
49902 H 19.4429 132.273 130.311 H 0 **** 0.053
49903 H 15.6819 133.56 127.829 H 0 **** 0.053
49904 H 15.2321 133.879 129.543 H 0 **** 0.053
49905 H 15.4721 131.398 129.261 H 0 **** 0.1268
49906 H 16.0482 136.108 128.359 H 0 **** 0.053
49907 H 16.6634 136.225 130.026 H 0 **** 0.053
49908 H 17.9996 137.777 128.625 H 0 **** 0.053
49909 H 18.3235 136.487 127.447 H 0 **** 0.053
49910 H 20.4652 133.833 131.279 H 0 **** 0.053
49911 H 21.3853 133.857 129.775 H 0 **** 0.053
49912 H 20.9715 136.117 131.778 H 0 **** 0.053
49913 H 22.2825 136.187 129.01 H 0 **** 0.053
49914 H 22.4786 137.478 130.2 H 0 **** 0.053
49915 H 20.5798 137.842 128.5 H 0 **** 0.053
49916 H 20.1248 138.002 130.216 H 0 **** 0.053
49917 H 20.2663 134.139 127.569 H 0 **** 0.053
49918 H 23.8515 134.83 123.552 H 0 **** 0.053
49919 H 25.3838 134.958 121.773 H 0 **** 0.053
49920 H 22.8161 127.368 123.814 H 0 **** 0.053
49921 H 29.7447 134.932 118.437 H 0 **** 0.053
49922 H 28.4584 135.726 120.195 H 0 **** 0.053
49923 H 26.1766 135.942 118.19 H 0 **** 0.053
49924 H 27.5005 138.014 118.43 H 0 **** 0.053
49925 H 27.9012 138.029 120.165 H 0 **** 0.053
49926 H 30.3108 137.377 119.473 H 0 **** 0.053
49927 H 29.8574 139.015 118.984 H 0 **** 0.053
49928 H 29.5335 138.417 116.723 H 0 **** 0.053
49929 H 28.174 136.62 116.489 H 0 **** 0.053
49930 H 30.6751 134.904 116.287 H 0 **** 0.053
49931 H 29.218 134.843 115.266 H 0 **** 0.053
49932 H 29.847 137.128 114.398 H 0 **** 0.053
49933 H 31.1141 135.959 114.037 H 0 **** 0.053
49934 H 31.6803 138.371 115.214 H 0 **** 0.053
49935 H 32.662 136.95 115.539 H 0 **** 0.053
49936 H 31.7149 136.715 117.585 H 0 **** 0.353
49937 H 23.1455 124.821 120.371 H 0 **** 0.053
49938 H 23.2543 124.347 122.81 H 0 **** 0.053
49939 H 25.9842 125.652 123.015 H 0 **** 0.053
49940 H 25.2039 124.524 124.107 H 0 **** 0.053
49941 H 26.892 123.143 123.141 H 0 **** 0.053
49942 H 26.8323 123.98 121.584 H 0 **** 0.053
49943 H 24.5967 122.16 122.637 H 0 **** 0.053
49944 H 25.8256 121.62 121.473 H 0 **** 0.053
49945 H 23.4526 122.446 120.559 H 0 **** 0.053
49946 H 24.923 122.966 119.707 H 0 **** 0.053
49947 H 26.746 125.673 118.504 H 0 **** 0.053
49948 H 28.3168 125.879 116.655 H 0 **** 0.053
49949 H 29.5652 133.243 116.729 H 0 **** 0.053
49950 H 30.7541 133.379 114.549 H 0 **** 0.053
49951 H 31.0678 132.011 112.727 H 0 **** 0.053
49952 H 33.8807 131.592 113.908 H 0 **** 0.053
49953 H 32.5551 134.202 113.059 H 0 **** 0.053
49954 H 34.3182 134.04 113.234 H 0 **** 0.053
49955 H 32.8014 134.844 115.332 H 0 **** 0.053
49956 H 34.2555 133.864 115.567 H 0 **** 0.053
49957 H 32.021 133.119 116.781 H 0 **** 0.053
49958 H 32.9592 131.854 115.982 H 0 **** 0.053
49959 H 22.6133 134.272 132.297 H 0 **** 0.053
49960 H 24.8034 134.215 131.175 H 0 **** 0.053
49961 H 24.3191 135.513 130.058 H 0 **** 0.053
49962 H 23.5494 133.913 129.954 H 0 **** 0.053
49963 H 22.7443 136.518 133.354 H 0 **** 0.053
49964 H 23.7627 137.105 132.017 H 0 **** 0.053
49965 H 24.3675 135.835 133.108 H 0 **** 0.053
49966 H 24.9071 136.063 120.056 H 0 **** 0.41
49967 H 30.4921 125.194 113.725 H 0 **** 0.053
49968 H 31.5226 124.047 111.626 H 0 **** 0.053
49969 H 32.9111 124.199 109.498 H 0 **** 0.053
49970 H 34.336 124.284 107.367 H 0 **** 0.053
49971 H 35.7107 125.745 105.64 H 0 **** 0.053
49972 H 37.0987 130.488 105.367 H 0 **** 0.053
49973 H 36.6239 128.052 104.924 H 0 **** 0.053
49974 H 34.4886 133.603 111.194 H 0 **** 0.053
49975 H 34.547 134.535 109.42 H 0 **** 0.053
49976 H 36.295 134.503 109.719 H 0 **** 0.053
49977 H 35.8112 136.01 107.802 H 0 **** 0.053
49978 H 34.8726 134.742 107.009 H 0 **** 0.053
49979 H 37.8903 134.585 107.657 H 0 **** 0.053
49980 H 37.2283 134.794 106.019 H 0 **** 0.053
49981 C 127.152 176.76 175.442 C.2 0 **** 0
49982 C 126.51 175.568 175.143 C.2 0 **** 0
49983 C 125.625 175.506 174.079 C.2 0 **** 0
49984 C 125.406 176.631 173.322 C.2 0 **** 0
49985 C 126.087 177.814 173.583 C.2 0 **** 0
49986 C 126.97 177.873 174.641 C.2 0 **** 0
49987 C 124.427 176.601 172.166 C.3 0 **** -0.106
49988 C 123.57 175.358 171.966 C.2 0 **** 0
49989 C 123.782 174.234 172.715 C.2 0 **** 0
49990 C 124.9 174.203 173.755 C.3 0 **** -0.106
49991 C 122.962 173.117 172.528 C.2 0 **** 0
49992 C 121.895 173.151 171.652 C.2 0 **** 0
49993 C 121.744 174.253 170.819 C.2 0 **** 0
49994 C 122.567 175.374 170.981 C.2 0 **** 0
49995 C 122.379 176.496 170.189 C.2 0 **** -0.1268
49996 C 121.329 176.661 169.31 C.2 0 **** 0
49997 C 120.417 175.548 169.278 C.2 0 **** 0
49998 C 120.761 174.314 169.836 C.2 0 **** 0.042
49999 C 119.149 175.627 168.404 C.3 0 **** 0
50000 C 118.927 176.883 167.557 C.3 0 **** 0
50001 C 120.072 177.914 167.49 C.2 0 **** 0
50002 C 121.201 177.807 168.367 C.2 0 **** 0
50003 C 117.445 177.268 167.362 C.3 0 **** -0.106
50004 C 116.661 177.217 168.677 C.3 0 **** -0.053
50005 C 116.666 175.785 169.295 C.3 0 **** -0.053
50006 C 117.84 174.902 168.798 C.3 0 **** -0.106
50007 C 122.227 178.753 168.17 C.2 0 **** 0.042
50008 C 122.115 179.73 167.204 C.2 0 **** 0.052
50009 C 121.018 179.783 166.357 C.2 0 **** 0.052
50010 C 120.033 178.838 166.462 C.2 0 **** 0.042
50011 C 120.874 180.833 165.286 C.2 0 **** 0.367
50012 C 121.981 181.83 165.18 C.2 0 **** 0
50013 C 123.049 181.775 165.984 C.2 0 **** 0
50014 C 123.211 180.752 167.045 C.2 0 **** 0.367
50015 C 124.16 182.796 165.878 C.3 0 **** -0.106
50016 C 123.548 184.171 165.511 C.3 0 **** -0.106
50017 C 122.661 184.062 164.271 C.2 0 **** 0
50018 C 121.868 182.902 164.111 C.2 0 **** 0.2405
50019 N 121.04 182.742 163.058 N.2 0 **** -0.481
50020 C 120.91 183.753 162.205 C.2 0 **** 0.2405
50021 C 121.696 184.925 162.294 C.2 0 **** 0
50022 C 122.582 185.061 163.332 C.2 0 **** 0
50023 C 123.438 186.312 163.49 C.3 0 **** -0.106
50024 C 123.491 187.161 162.214 C.3 0 **** -0.106
50025 C 122.096 187.317 161.618 C.3 0 **** -0.106
50026 C 121.56 185.939 161.185 C.3 0 **** -0.053
50027 C 120.08 186.026 160.727 C.3 0 **** -0.106
50028 C 119.564 184.649 160.407 C.2 0 **** 0
50029 C 119.97 183.548 161.164 C.2 0 **** 0
50030 C 119.437 182.279 160.875 C.2 0 **** -0.1268
50031 C 118.501 182.144 159.869 C.2 0 **** -0.1268
50032 C 118.062 183.236 159.142 C.2 0 **** 0
50033 C 118.586 184.497 159.429 C.2 0 **** 0
50034 C 127.756 179.132 174.906 C.3 0 **** -0.106
50035 C 126.939 180.129 175.754 C.3 0 **** -0.159
50036 C 128.051 176.831 176.649 C.3 0 **** -0.159
50037 C 125.805 179.003 172.694 C.3 0 **** -0.159
50038 C 126.766 174.337 175.978 C.3 0 **** -0.159
50039 C 123.26 171.874 173.367 C.3 0 **** -0.159
50040 C 120.949 171.973 171.673 C.3 0 **** -0.159
50041 O 120.062 173.202 169.46 O.3 0 **** -0.452
50042 C 115.4 174.98 168.994 C.3 0 **** -0.159
50043 C 115.257 177.77 168.406 C.3 0 **** -0.159
50044 O 118.979 178.762 165.592 O.3 0 **** -0.452
50045 O 123.353 178.709 168.926 O.3 0 **** -0.452
50046 O 124.177 180.736 167.738 O.2 0 **** -0.419
50047 O 119.898 180.879 164.596 O.2 0 **** -0.419
50048 C 118.076 185.707 158.665 C.3 0 **** -0.159
50049 C 117.009 183.014 158.075 C.3 0 **** -0.159
50050 H 123.732 177.462 172.303 H 0 **** 0.053
50051 H 124.992 176.794 171.222 H 0 **** 0.053
50052 H 125.664 173.458 173.425 H 0 **** 0.053
50053 H 124.469 173.811 174.702 H 0 **** 0.053
50054 H 123.096 177.271 170.342 H 0 **** 0.1268
50055 H 117.345 178.269 166.937 H 0 **** 0.053
50056 H 117.036 176.551 166.646 H 0 **** 0.053
50057 H 117.158 177.898 169.391 H 0 **** 0.053
50058 H 116.756 175.9 170.383 H 0 **** 0.053
50059 H 117.539 174.397 167.875 H 0 **** 0.053
50060 H 118.024 174.127 169.551 H 0 **** 0.053
50061 H 124.738 182.895 166.815 H 0 **** 0.053
50062 H 124.869 182.464 165.101 H 0 **** 0.053
50063 H 124.386 184.88 165.39 H 0 **** 0.053
50064 H 122.962 184.543 166.378 H 0 **** 0.053
50065 H 123.033 186.931 164.313 H 0 **** 0.053
50066 H 124.477 186.059 163.767 H 0 **** 0.053
50067 H 124.147 186.674 161.467 H 0 **** 0.053
50068 H 123.94 188.149 162.425 H 0 **** 0.053
50069 H 122.104 188.006 160.752 H 0 **** 0.053
50070 H 121.416 187.759 162.37 H 0 **** 0.053
50071 H 122.17 185.602 160.312 H 0 **** 0.053
50072 H 119.474 186.482 161.543 H 0 **** 0.053
50073 H 120.021 186.726 159.866 H 0 **** 0.053
50074 H 119.751 181.394 161.444 H 0 **** 0.1268
50075 H 118.085 181.146 159.651 H 0 **** 0.1268
50076 H 128.076 179.629 173.97 H 0 **** 0.053
50077 H 128.711 178.927 175.422 H 0 **** 0.053
50078 H 126.647 179.683 176.72 H 0 **** 0.053
50079 H 126.018 180.441 175.234 H 0 **** 0.053
50080 H 127.518 181.048 175.977 H 0 **** 0.053
50081 H 127.741 176.142 177.459 H 0 **** 0.053
50082 H 128.053 177.829 177.126 H 0 **** 0.053
50083 H 129.107 176.585 176.397 H 0 **** 0.053
50084 H 124.738 179.314 172.754 H 0 **** 0.053
50085 H 126.018 178.781 171.626 H 0 **** 0.053
50086 H 126.381 179.909 172.931 H 0 **** 0.053
50087 H 126.583 173.389 175.436 H 0 **** 0.053
50088 H 126.122 174.316 176.885 H 0 **** 0.053
50089 H 127.817 174.267 176.317 H 0 **** 0.053
50090 H 123.012 170.937 172.839 H 0 **** 0.053
50091 H 122.699 171.879 174.33 H 0 **** 0.053
50092 H 124.338 171.764 173.624 H 0 **** 0.053
50093 H 119.884 172.29 171.614 H 0 **** 0.053
50094 H 120.974 171.366 172.619 H 0 **** 0.053
50095 H 121.127 171.249 170.836 H 0 **** 0.053
50096 H 119.624 173.372 168.622 H 0 **** 0.41
50097 H 114.509 175.443 169.437 H 0 **** 0.053
50098 H 115.483 173.959 169.414 H 0 **** 0.053
50099 H 115.239 174.874 167.903 H 0 **** 0.053
50100 H 115.313 178.813 168.041 H 0 **** 0.053
50101 H 114.644 177.773 169.32 H 0 **** 0.053
50102 H 114.731 177.183 167.628 H 0 **** 0.053
50103 H 119.008 179.539 165.013 H 0 **** 0.41
50104 H 123.938 179.445 168.694 H 0 **** 0.41
50105 H 117.783 186.525 159.35 H 0 **** 0.053
50106 H 117.177 185.499 158.054 H 0 **** 0.053
50107 H 118.842 186.106 157.969 H 0 **** 0.053
50108 H 116.071 183.552 158.303 H 0 **** 0.053
50109 H 116.74 181.948 157.972 H 0 **** 0.053
50110 H 117.354 183.348 157.081 H 0 **** 0.053
50111 C 129.484 168.6 186.294 C.2 0 **** 0
50112 C 130.776 168.098 186.272 C.2 0 **** 0
50113 C 131.854 168.951 186.446 C.2 0 **** 0
50114 C 131.624 170.289 186.653 C.2 0 **** 0
50115 C 130.33 170.79 186.731 C.2 0 **** 0
50116 C 129.258 169.938 186.561 C.2 0 **** 0
50117 C 132.782 171.251 186.823 C.3 0 **** -0.106
50118 C 134.197 170.739 186.594 C.2 0 **** 0
50119 C 134.435 169.408 186.386 C.2 0 **** 0
50120 C 133.28 168.409 186.403 C.3 0 **** -0.106
50121 C 135.742 168.97 186.151 C.2 0 **** 0
50122 C 136.789 169.865 186.05 C.2 0 **** 0
50123 C 136.565 171.201 186.361 C.2 0 **** 0
50124 C 135.265 171.653 186.617 C.2 0 **** 0
50125 C 135.032 172.996 186.871 C.2 0 **** -0.1268
50126 C 135.987 173.986 186.763 C.2 0 **** 0
50127 C 137.28 173.503 186.353 C.2 0 **** 0
50128 C 137.59 172.141 186.39 C.2 0 **** 0.042
50129 C 138.424 174.507 186.106 C.3 0 **** 0
50130 C 138.154 175.993 186.355 C.3 0 **** 0
50131 C 136.811 176.378 187.007 C.2 0 **** 0
50132 C 135.77 175.404 187.162 C.2 0 **** 0
50133 C 138.935 176.948 185.428 C.3 0 **** -0.106
50134 C 138.87 176.505 183.963 C.3 0 **** -0.053
50135 C 139.491 175.09 183.76 C.3 0 **** -0.053
50136 C 139.531 174.241 185.058 C.3 0 **** -0.106
50137 C 134.614 175.839 187.841 C.2 0 **** 0.042
50138 C 134.504 177.136 188.295 C.2 0 **** 0.052
50139 C 135.545 178.041 188.151 C.2 0 **** 0.052
50140 C 136.716 177.64 187.565 C.2 0 **** 0.042
50141 C 135.457 179.46 188.647 C.2 0 **** 0.367
50142 C 134.177 179.854 189.307 C.2 0 **** 0
50143 C 133.174 178.982 189.463 C.2 0 **** 0
50144 C 133.238 177.581 188.982 C.2 0 **** 0.367
50145 C 131.877 179.393 190.122 C.3 0 **** -0.106
50146 C 131.561 180.862 189.743 C.3 0 **** -0.106
50147 C 132.75 181.773 190.049 C.2 0 **** 0
50148 C 134.053 181.278 189.819 C.2 0 **** 0.2405
50149 N 135.153 182.03 190.04 N.2 0 **** -0.481
50150 C 134.981 183.299 190.396 C.2 0 **** 0.2405
50151 C 133.705 183.844 190.67 C.2 0 **** 0
50152 C 132.592 183.059 190.503 C.2 0 **** 0
50153 C 131.191 183.601 190.761 C.3 0 **** -0.106
50154 C 131.197 184.904 191.571 C.3 0 **** -0.106
50155 C 132.248 185.865 191.027 C.3 0 **** -0.106
50156 C 133.651 185.253 191.204 C.3 0 **** -0.053
50157 C 134.737 186.121 190.515 C.3 0 **** -0.106
50158 C 136.077 185.442 190.625 C.2 0 **** 0
50159 C 136.174 184.052 190.54 C.2 0 **** 0
50160 C 137.441 183.445 190.598 C.2 0 **** -0.1268
50161 C 138.571 184.231 190.708 C.2 0 **** -0.1268
50162 C 138.486 185.612 190.749 C.2 0 **** 0
50163 C 137.231 186.216 190.689 C.2 0 **** 0
50164 C 127.848 170.455 186.695 C.3 0 **** -0.106
50165 C 127.352 171.068 185.368 C.3 0 **** -0.159
50166 C 128.328 167.672 186.027 C.3 0 **** -0.159
50167 C 130.159 172.271 186.98 C.3 0 **** -0.159
50168 C 131.015 166.624 186.051 C.3 0 **** -0.159
50169 C 135.96 167.469 185.958 C.3 0 **** -0.159
50170 C 138.12 169.317 185.591 C.3 0 **** -0.159
50171 O 138.903 171.762 186.366 O.3 0 **** -0.452
50172 C 140.934 175.117 183.252 C.3 0 **** -0.159
50173 C 139.53 177.598 183.114 C.3 0 **** -0.159
50174 O 137.822 178.443 187.489 O.3 0 **** -0.452
50175 O 133.591 174.978 188.071 O.3 0 **** -0.452
50176 O 132.326 176.837 189.138 O.2 0 **** -0.419
50177 O 136.355 180.231 188.473 O.2 0 **** -0.419
50178 C 137.134 187.733 190.689 C.3 0 **** -0.159
50179 C 139.772 186.408 190.838 C.3 0 **** -0.159
50180 H 132.616 172.093 186.112 H 0 **** 0.053
50181 H 132.728 171.686 187.851 H 0 **** 0.053
50182 H 133.416 167.732 187.281 H 0 **** 0.053
50183 H 133.373 167.771 185.497 H 0 **** 0.053
50184 H 134.021 173.232 187.119 H 0 **** 0.1268
50185 H 138.558 177.97 185.499 H 0 **** 0.053
50186 H 139.968 176.939 185.783 H 0 **** 0.053
50187 H 137.805 176.454 183.674 H 0 **** 0.053
50188 H 138.871 174.564 183.022 H 0 **** 0.053
50189 H 140.455 174.462 185.6 H 0 **** 0.053
50190 H 139.564 173.183 184.772 H 0 **** 0.053
50191 H 131.027 178.752 189.826 H 0 **** 0.053
50192 H 131.988 179.287 191.215 H 0 **** 0.053
50193 H 130.639 181.147 190.279 H 0 **** 0.053
50194 H 131.307 180.903 188.663 H 0 **** 0.053
50195 H 130.686 183.784 189.794 H 0 **** 0.053
50196 H 130.569 182.87 191.308 H 0 **** 0.053
50197 H 131.426 184.684 192.631 H 0 **** 0.053
50198 H 130.195 185.371 191.559 H 0 **** 0.053
50199 H 132.199 186.846 191.539 H 0 **** 0.053
50200 H 132.06 186.056 189.955 H 0 **** 0.053
50201 H 133.872 185.232 192.299 H 0 **** 0.053
50202 H 134.465 186.26 189.444 H 0 **** 0.053
50203 H 134.721 187.133 190.976 H 0 **** 0.053
50204 H 137.545 182.353 190.55 H 0 **** 0.1268
50205 H 139.561 183.748 190.749 H 0 **** 0.1268
50206 H 127.754 171.209 187.5 H 0 **** 0.053
50207 H 127.142 169.664 187.006 H 0 **** 0.053
50208 H 127.383 170.326 184.553 H 0 **** 0.053
50209 H 127.972 171.928 185.066 H 0 **** 0.053
50210 H 126.307 171.427 185.448 H 0 **** 0.053
50211 H 128.593 166.836 185.351 H 0 **** 0.053
50212 H 127.482 168.174 185.521 H 0 **** 0.053
50213 H 127.929 167.222 186.963 H 0 **** 0.053
50214 H 130.609 172.877 186.163 H 0 **** 0.053
50215 H 130.645 172.589 187.927 H 0 **** 0.053
50216 H 129.116 172.614 187.05 H 0 **** 0.053
50217 H 131.973 166.263 186.474 H 0 **** 0.053
50218 H 131.026 166.368 184.969 H 0 **** 0.053
50219 H 130.243 165.994 186.532 H 0 **** 0.053
50220 H 136.946 167.133 186.325 H 0 **** 0.053
50221 H 135.878 167.172 184.887 H 0 **** 0.053
50222 H 135.233 166.842 186.522 H 0 **** 0.053
50223 H 138.619 169.991 184.859 H 0 **** 0.053
50224 H 138.061 168.345 185.03 H 0 **** 0.053
50225 H 138.841 169.146 186.432 H 0 **** 0.053
50226 H 139.452 172.494 186.658 H 0 **** 0.41
50227 H 141.005 175.569 182.254 H 0 **** 0.053
50228 H 141.337 174.089 183.177 H 0 **** 0.053
50229 H 141.594 175.678 183.943 H 0 **** 0.053
50230 H 139.002 178.562 183.241 H 0 **** 0.053
50231 H 139.504 177.345 182.044 H 0 **** 0.053
50232 H 140.584 177.766 183.414 H 0 **** 0.053
50233 H 137.575 179.329 187.793 H 0 **** 0.41
50234 H 132.86 175.437 188.51 H 0 **** 0.41
50235 H 136.494 188.098 189.864 H 0 **** 0.053
50236 H 138.108 188.24 190.553 H 0 **** 0.053
50237 H 136.712 188.117 191.641 H 0 **** 0.053
50238 H 139.922 187.048 189.949 H 0 **** 0.053
50239 H 140.661 185.756 190.906 H 0 **** 0.053
50240 H 139.791 187.06 191.728 H 0 **** 0.053
50241 C 138.309 119.158 152.258 C.2 0 **** 0
50242 C 138.164 119.868 153.439 C.2 0 **** 0
50243 C 137.307 119.405 154.424 C.2 0 **** 0
50244 C 136.621 118.234 154.22 C.2 0 **** 0
50245 C 136.804 117.488 153.062 C.2 0 **** 0
50246 C 137.66 117.949 152.083 C.2 0 **** 0
50247 C 135.659 117.713 155.269 C.3 0 **** -0.106
50248 C 135.341 118.593 156.471 C.2 0 **** 0
50249 C 136.019 119.762 156.681 C.2 0 **** 0
50250 C 137.126 120.192 155.72 C.3 0 **** -0.106
50251 C 135.688 120.563 157.778 C.2 0 **** 0
50252 C 134.638 120.235 158.613 C.2 0 **** 0
50253 C 134.018 119 158.46 C.2 0 **** 0
50254 C 134.35 118.177 157.377 C.2 0 **** 0
50255 C 133.692 116.971 157.191 C.2 0 **** -0.1268
50256 C 132.607 116.554 157.935 C.2 0 **** 0
50257 C 132.198 117.495 158.945 C.2 0 **** 0
50258 C 133.028 118.551 159.33 C.2 0 **** 0.042
50259 C 130.946 117.202 159.796 C.3 0 **** 0
50260 C 130.201 115.885 159.564 C.3 0 **** 0
50261 C 130.849 114.852 158.621 C.2 0 **** 0
50262 C 131.984 115.206 157.821 C.2 0 **** 0
50263 C 128.677 115.965 159.795 C.3 0 **** -0.106
50264 C 128.059 117.195 159.123 C.3 0 **** -0.053
50265 C 128.659 118.521 159.685 C.3 0 **** -0.053
50266 C 130.05 118.337 160.347 C.3 0 **** -0.106
50267 C 132.548 114.166 157.054 C.2 0 **** 0.042
50268 C 132.004 112.9 157.068 C.2 0 **** 0.052
50269 C 130.921 112.589 157.878 C.2 0 **** 0.052
50270 C 130.389 113.549 158.697 C.2 0 **** 0.042
50271 C 130.314 111.212 157.922 C.2 0 **** 0.367
50272 C 130.937 110.183 157.038 C.2 0 **** 0
50273 C 131.991 110.471 156.266 C.2 0 **** 0
50274 C 132.605 111.819 156.205 C.2 0 **** 0.367
50275 C 132.609 109.426 155.365 C.3 0 **** -0.106
50276 C 131.489 108.505 154.819 C.3 0 **** -0.106
50277 C 130.637 107.944 155.957 C.2 0 **** 0
50278 C 130.35 108.783 157.058 C.2 0 **** 0.2405
50279 N 129.582 108.371 158.089 N.2 0 **** -0.481
50280 C 129.017 107.171 158.008 C.2 0 **** 0.2405
50281 C 129.29 106.275 156.949 C.2 0 **** 0
50282 C 130.118 106.674 155.93 C.2 0 **** 0
50283 C 130.428 105.758 154.752 C.3 0 **** -0.106
50284 C 130.066 104.293 155.026 C.3 0 **** -0.106
50285 C 128.685 104.195 155.666 C.3 0 **** -0.106
50286 C 128.701 104.889 157.041 C.3 0 **** -0.053
50287 C 127.278 104.96 157.655 C.3 0 **** -0.106
50288 C 127.318 105.73 158.948 C.2 0 **** 0
50289 C 128.166 106.829 159.089 C.2 0 **** 0
50290 C 128.152 107.561 160.29 C.2 0 **** -0.1268
50291 C 127.28 107.201 161.3 C.2 0 **** -0.1268
50292 C 126.406 106.139 161.15 C.2 0 **** 0
50293 C 126.416 105.414 159.959 C.2 0 **** 0
50294 C 137.91 117.128 150.843 C.3 0 **** -0.106
50295 C 136.825 117.386 149.776 C.3 0 **** -0.159
50296 C 139.186 119.714 151.166 C.3 0 **** -0.159
50297 C 136.026 116.2 152.919 C.3 0 **** -0.159
50298 C 138.931 121.15 153.654 C.3 0 **** -0.159
50299 C 136.498 121.842 157.988 C.3 0 **** -0.159
50300 C 134.229 121.263 159.64 C.3 0 **** -0.159
50301 O 132.792 119.177 160.521 O.3 0 **** -0.452
50302 C 127.79 119.187 160.754 C.3 0 **** -0.159
50303 C 126.537 117.093 159.27 C.3 0 **** -0.159
50304 O 129.395 113.288 159.601 O.3 0 **** -0.452
50305 O 133.649 114.395 156.295 O.3 0 **** -0.452
50306 O 133.54 112.037 155.506 O.2 0 **** -0.419
50307 O 129.354 110.983 158.599 O.2 0 **** -0.419
50308 C 125.428 104.274 159.772 C.3 0 **** -0.159
50309 C 125.457 105.824 162.289 C.3 0 **** -0.159
50310 H 134.695 117.499 154.752 H 0 **** 0.053
50311 H 136.044 116.733 155.643 H 0 **** 0.053
50312 H 138.097 120.172 156.272 H 0 **** 0.053
50313 H 136.942 121.254 155.448 H 0 **** 0.053
50314 H 134.06 116.386 156.379 H 0 **** 0.1268
50315 H 128.17 115.074 159.421 H 0 **** 0.053
50316 H 128.535 116.01 160.877 H 0 **** 0.053
50317 H 128.297 117.145 158.046 H 0 **** 0.053
50318 H 128.766 119.214 158.841 H 0 **** 0.053
50319 H 129.913 118.069 161.398 H 0 **** 0.053
50320 H 130.569 119.303 160.32 H 0 **** 0.053
50321 H 133.161 109.868 154.516 H 0 **** 0.053
50322 H 133.341 108.844 155.951 H 0 **** 0.053
50323 H 131.976 107.724 154.209 H 0 **** 0.053
50324 H 130.861 109.09 154.113 H 0 **** 0.053
50325 H 129.868 106.103 153.862 H 0 **** 0.053
50326 H 131.499 105.793 154.483 H 0 **** 0.053
50327 H 130.811 103.845 155.711 H 0 **** 0.053
50328 H 130.108 103.703 154.092 H 0 **** 0.053
50329 H 128.37 103.14 155.781 H 0 **** 0.053
50330 H 127.937 104.681 155.014 H 0 **** 0.053
50331 H 129.338 104.271 157.721 H 0 **** 0.053
50332 H 126.595 105.462 156.932 H 0 **** 0.053
50333 H 126.897 103.922 157.776 H 0 **** 0.053
50334 H 128.82 108.42 160.434 H 0 **** 0.1268
50335 H 127.271 107.781 162.237 H 0 **** 0.1268
50336 H 137.953 116.043 151.063 H 0 **** 0.053
50337 H 138.9 117.334 150.4 H 0 **** 0.053
50338 H 136.791 118.451 149.495 H 0 **** 0.053
50339 H 135.825 117.101 150.141 H 0 **** 0.053
50340 H 137.015 116.806 148.85 H 0 **** 0.053
50341 H 139.222 120.821 151.162 H 0 **** 0.053
50342 H 138.831 119.449 150.152 H 0 **** 0.053
50343 H 140.235 119.354 151.253 H 0 **** 0.053
50344 H 134.928 116.383 152.924 H 0 **** 0.053
50345 H 136.242 115.493 153.75 H 0 **** 0.053
50346 H 136.22 115.639 151.993 H 0 **** 0.053
50347 H 139.098 121.393 154.722 H 0 **** 0.053
50348 H 138.406 122.022 153.206 H 0 **** 0.053
50349 H 139.946 121.115 153.214 H 0 **** 0.053
50350 H 136.602 122.109 159.054 H 0 **** 0.053
50351 H 136.043 122.714 157.465 H 0 **** 0.053
50352 H 137.549 121.764 157.626 H 0 **** 0.053
50353 H 133.123 121.355 159.723 H 0 **** 0.053
50354 H 134.548 122.315 159.407 H 0 **** 0.053
50355 H 134.621 121.043 160.667 H 0 **** 0.053
50356 H 132.284 118.598 161.095 H 0 **** 0.41
50357 H 126.82 119.502 160.349 H 0 **** 0.053
50358 H 128.289 120.091 161.151 H 0 **** 0.053
50359 H 127.613 118.507 161.611 H 0 **** 0.053
50360 H 126.159 116.172 158.789 H 0 **** 0.053
50361 H 126.031 117.946 158.793 H 0 **** 0.053
50362 H 126.233 117.05 160.334 H 0 **** 0.053
50363 H 129.084 112.382 159.455 H 0 **** 0.41
50364 H 133.886 113.596 155.802 H 0 **** 0.41
50365 H 124.885 104.362 158.813 H 0 **** 0.053
50366 H 124.644 104.234 160.552 H 0 **** 0.053
50367 H 125.933 103.286 159.786 H 0 **** 0.053
50368 H 124.4 105.95 161.992 H 0 **** 0.053
50369 H 125.617 106.484 163.159 H 0 **** 0.053
50370 H 125.581 104.789 162.654 H 0 **** 0.053
50371 C 134.224 101.54 134.765 C.2 0 **** 0
50372 C 133.465 101.129 135.849 C.2 0 **** 0
50373 C 132.308 100.394 135.646 C.2 0 **** 0
50374 C 131.936 100.069 134.365 C.2 0 **** 0
50375 C 132.722 100.43 133.277 C.2 0 **** 0
50376 C 133.875 101.159 133.481 C.2 0 **** 0
50377 C 130.664 99.2856 134.109 C.3 0 **** -0.106
50378 C 129.726 99.014 135.277 C.2 0 **** 0
50379 C 130.088 99.3354 136.556 C.2 0 **** 0
50380 C 131.456 99.9543 136.834 C.3 0 **** -0.106
50381 C 129.195 99.0988 137.606 C.2 0 **** 0
50382 C 127.924 98.6157 137.368 C.2 0 **** 0
50383 C 127.593 98.1949 136.085 C.2 0 **** 0
50384 C 128.483 98.4078 135.025 C.2 0 **** 0
50385 C 128.131 98.0399 133.735 C.2 0 **** -0.1268
50386 C 126.882 97.5832 133.37 C.2 0 **** 0
50387 C 125.945 97.518 134.461 C.2 0 **** 0
50388 C 126.372 97.5954 135.789 C.2 0 **** 0.042
50389 C 124.484 97.1083 134.186 C.3 0 **** 0
50390 C 124.09 96.7326 132.755 C.3 0 **** 0
50391 C 125.217 96.6202 131.708 C.2 0 **** 0
50392 C 126.544 97.067 132.014 C.2 0 **** 0
50393 C 122.637 97.0905 132.379 C.3 0 **** -0.106
50394 C 122.27 98.5113 132.815 C.3 0 **** -0.053
50395 C 122.376 98.6906 134.359 C.3 0 **** -0.053
50396 C 123.31 97.653 135.035 C.3 0 **** -0.106
50397 C 127.515 96.8433 131.018 C.2 0 **** 0.042
50398 C 127.177 96.2557 129.817 C.2 0 **** 0.052
50399 C 125.887 95.812 129.57 C.2 0 **** 0.052
50400 C 124.928 95.9381 130.54 C.2 0 **** 0.042
50401 C 125.492 95.1556 128.272 C.2 0 **** 0.367
50402 C 126.568 95.0066 127.249 C.2 0 **** 0
50403 C 127.82 95.4183 127.487 C.2 0 **** 0
50404 C 128.23 96.0676 128.755 C.2 0 **** 0.367
50405 C 128.902 95.274 126.441 C.3 0 **** -0.106
50406 C 128.28 95.4873 125.039 C.3 0 **** -0.106
50407 C 127.068 94.5782 124.834 C.2 0 **** 0
50408 C 126.206 94.3487 125.93 C.2 0 **** 0.2405
50409 N 125.1 93.5821 125.823 N.2 0 **** -0.481
50410 C 124.781 93.11 124.622 C.2 0 **** 0.2405
50411 C 125.616 93.2817 123.493 C.2 0 **** 0
50412 C 126.771 94.0121 123.619 C.2 0 **** 0
50413 C 127.696 94.2471 122.431 C.3 0 **** -0.106
50414 C 127.42 93.2926 121.263 C.3 0 **** -0.106
50415 C 125.922 93.1999 120.993 C.3 0 **** -0.106
50416 C 125.216 92.5865 122.216 C.3 0 **** -0.053
50417 C 123.673 92.615 122.058 C.3 0 **** -0.106
50418 C 123.018 92.0968 123.312 C.2 0 **** 0
50419 C 123.57 92.3753 124.564 C.2 0 **** 0
50420 C 122.912 91.9231 125.722 C.2 0 **** -0.1268
50421 C 121.721 91.2332 125.608 C.2 0 **** -0.1268
50422 C 121.147 90.9894 124.373 C.2 0 **** 0
50423 C 121.794 91.4419 123.223 C.2 0 **** 0
50424 C 134.765 101.514 132.318 C.3 0 **** -0.106
50425 C 134.279 102.801 131.618 C.3 0 **** -0.159
50426 C 135.437 102.403 134.998 C.3 0 **** -0.159
50427 C 132.255 100.019 131.9 C.3 0 **** -0.159
50428 C 133.889 101.486 137.253 C.3 0 **** -0.159
50429 C 129.661 99.4436 139.021 C.3 0 **** -0.159
50430 C 126.968 98.5896 138.538 C.3 0 **** -0.159
50431 O 125.539 97.1545 136.779 O.3 0 **** -0.452
50432 C 121.038 98.5653 135.092 C.3 0 **** -0.159
50433 C 120.88 98.8217 132.255 C.3 0 **** -0.159
50434 O 123.667 95.4224 130.41 O.3 0 **** -0.452
50435 O 128.809 97.1917 131.232 O.3 0 **** -0.452
50436 O 129.352 96.4202 128.929 O.2 0 **** -0.419
50437 O 124.361 94.8169 128.073 O.2 0 **** -0.419
50438 C 121.146 91.2183 121.867 C.3 0 **** -0.159
50439 C 119.821 90.2564 124.328 C.3 0 **** -0.159
50440 H 130.083 99.8464 133.341 H 0 **** 0.053
50441 H 130.942 98.3072 133.646 H 0 **** 0.053
50442 H 132.055 99.2272 137.435 H 0 **** 0.053
50443 H 131.299 100.843 137.484 H 0 **** 0.053
50444 H 128.898 98.182 133.008 H 0 **** 0.1268
50445 H 122.468 97.0021 131.305 H 0 **** 0.053
50446 H 122.003 96.3602 132.887 H 0 **** 0.053
50447 H 122.984 99.2069 132.34 H 0 **** 0.053
50448 H 122.782 99.6938 134.544 H 0 **** 0.053
50449 H 122.732 96.7571 135.278 H 0 **** 0.053
50450 H 123.666 98.0805 135.98 H 0 **** 0.053
50451 H 129.73 95.9917 126.583 H 0 **** 0.053
50452 H 129.339 94.2638 126.524 H 0 **** 0.053
50453 H 129.08 95.3251 124.297 H 0 **** 0.053
50454 H 127.987 96.5543 124.938 H 0 **** 0.053
50455 H 127.578 95.2887 122.076 H 0 **** 0.053
50456 H 128.757 94.13 122.716 H 0 **** 0.053
50457 H 127.805 92.2838 121.506 H 0 **** 0.053
50458 H 127.962 93.6227 120.357 H 0 **** 0.053
50459 H 125.714 92.5865 120.096 H 0 **** 0.053
50460 H 125.514 94.2071 120.795 H 0 **** 0.053
50461 H 125.535 91.5201 122.269 H 0 **** 0.053
50462 H 123.349 93.6627 121.864 H 0 **** 0.053
50463 H 123.403 92.0301 121.152 H 0 **** 0.053
50464 H 123.336 92.1133 126.716 H 0 **** 0.1268
50465 H 121.211 90.8837 126.519 H 0 **** 0.1268
50466 H 134.826 100.697 131.574 H 0 **** 0.053
50467 H 135.817 101.654 132.625 H 0 **** 0.053
50468 H 134.257 103.651 132.321 H 0 **** 0.053
50469 H 133.264 102.676 131.206 H 0 **** 0.053
50470 H 134.943 103.085 130.778 H 0 **** 0.053
50471 H 135.34 103.05 135.891 H 0 **** 0.053
50472 H 135.626 103.111 134.168 H 0 **** 0.053
50473 H 136.361 101.798 135.13 H 0 **** 0.053
50474 H 131.267 100.469 131.652 H 0 **** 0.053
50475 H 132.139 98.9167 131.814 H 0 **** 0.053
50476 H 132.92 100.314 131.075 H 0 **** 0.053
50477 H 133.511 100.785 138.022 H 0 **** 0.053
50478 H 133.535 102.5 137.542 H 0 **** 0.053
50479 H 134.989 101.472 137.378 H 0 **** 0.053
50480 H 129.225 98.7767 139.786 H 0 **** 0.053
50481 H 129.403 100.491 139.299 H 0 **** 0.053
50482 H 130.76 99.3356 139.162 H 0 **** 0.053
50483 H 125.949 98.9313 138.251 H 0 **** 0.053
50484 H 127.235 99.2855 139.379 H 0 **** 0.053
50485 H 126.861 97.5734 138.999 H 0 **** 0.053
50486 H 124.892 96.5499 136.406 H 0 **** 0.41
50487 H 120.336 99.3568 134.796 H 0 **** 0.053
50488 H 121.187 98.6494 136.185 H 0 **** 0.053
50489 H 120.564 97.5827 134.9 H 0 **** 0.053
50490 H 120.88 98.7544 131.151 H 0 **** 0.053
50491 H 120.562 99.8396 132.524 H 0 **** 0.053
50492 H 120.124 98.0997 132.623 H 0 **** 0.053
50493 H 123.563 95.1038 129.501 H 0 **** 0.41
50494 H 129.336 97.0164 130.438 H 0 **** 0.41
50495 H 121.105 92.1538 121.278 H 0 **** 0.053
50496 H 120.099 90.8626 121.928 H 0 **** 0.053
50497 H 121.698 90.465 121.268 H 0 **** 0.053
50498 H 119.017 90.8856 123.905 H 0 **** 0.053
50499 H 119.481 89.9512 125.334 H 0 **** 0.053
50500 H 119.881 89.3348 123.723 H 0 **** 0.053
50501 C 118.453 164.871 146.417 C.2 0 **** 0
50502 C 118.335 166.183 146.849 C.2 0 **** 0
50503 C 118.94 167.205 146.135 C.2 0 **** 0
50504 C 119.64 166.901 144.993 C.2 0 **** 0
50505 C 119.716 165.595 144.524 C.2 0 **** 0
50506 C 119.11 164.58 145.235 C.2 0 **** 0
50507 C 120.332 167.992 144.203 C.3 0 **** -0.106
50508 C 120.378 169.399 144.785 C.2 0 **** 0
50509 C 119.685 169.708 145.922 C.2 0 **** 0
50510 C 118.831 168.649 146.615 C.3 0 **** -0.106
50511 C 119.768 171.002 146.448 C.2 0 **** 0
50512 C 120.598 171.952 145.885 C.2 0 **** 0
50513 C 121.225 171.662 144.679 C.2 0 **** 0
50514 C 121.132 170.383 144.123 C.2 0 **** 0
50515 C 121.801 170.082 142.946 C.2 0 **** -0.1268
50516 C 122.684 170.934 142.315 C.2 0 **** 0
50517 C 122.87 172.187 142.993 C.2 0 **** 0
50518 C 122 172.594 144.002 C.2 0 **** 0.042
50519 C 123.889 173.209 142.45 C.3 0 **** 0
50520 C 124.648 172.866 141.166 C.3 0 **** 0
50521 C 124.22 171.598 140.4 C.2 0 **** 0
50522 C 123.301 170.666 140.986 C.2 0 **** 0
50523 C 126.082 173.435 141.102 C.3 0 **** -0.106
50524 C 126.851 173.205 142.407 C.3 0 **** -0.053
50525 C 126.156 173.901 143.616 C.3 0 **** -0.053
50526 C 124.65 174.184 143.382 C.3 0 **** -0.106
50527 C 122.914 169.584 140.169 C.2 0 **** 0.042
50528 C 123.426 169.437 138.898 C.2 0 **** 0.052
50529 C 124.292 170.375 138.357 C.2 0 **** 0.052
50530 C 124.634 171.484 139.085 C.2 0 **** 0.042
50531 C 124.857 170.245 136.968 C.2 0 **** 0.367
50532 C 124.438 169.042 136.191 C.2 0 **** 0
50533 C 123.591 168.14 136.701 C.2 0 **** 0
50534 C 123.024 168.246 138.066 C.2 0 **** 0.367
50535 C 123.182 166.917 135.912 C.3 0 **** -0.106
50536 C 124.387 166.441 135.063 C.3 0 **** -0.106
50537 C 124.951 167.585 134.22 C.2 0 **** 0
50538 C 124.989 168.88 134.786 C.2 0 **** 0.2405
50539 N 125.496 169.938 134.117 N.2 0 **** -0.481
50540 C 126.052 169.718 132.93 C.2 0 **** 0.2405
50541 C 126.018 168.453 132.298 C.2 0 **** 0
50542 C 125.451 167.392 132.957 C.2 0 **** 0
50543 C 125.411 166.005 132.333 C.3 0 **** -0.106
50544 C 125.675 166.017 130.823 C.3 0 **** -0.106
50545 C 126.872 166.905 130.505 C.3 0 **** -0.106
50546 C 126.553 168.362 130.89 C.3 0 **** -0.053
50547 C 127.8 169.272 130.742 C.3 0 **** -0.106
50548 C 127.476 170.663 131.22 C.2 0 **** 0
50549 C 126.631 170.856 132.314 C.2 0 **** 0
50550 C 126.381 172.162 132.771 C.2 0 **** -0.1268
50551 C 126.996 173.232 132.151 C.2 0 **** -0.1268
50552 C 127.869 173.046 131.093 C.2 0 **** 0
50553 C 128.121 171.751 130.641 C.2 0 **** 0
50554 C 119.138 163.166 144.714 C.3 0 **** -0.106
50555 C 120.44 162.447 145.126 C.3 0 **** -0.159
50556 C 117.854 163.765 147.246 C.3 0 **** -0.159
50557 C 120.49 165.345 143.25 C.3 0 **** -0.159
50558 C 117.555 166.504 148.101 C.3 0 **** -0.159
50559 C 118.947 171.309 147.701 C.3 0 **** -0.159
50560 C 120.773 173.247 146.644 C.3 0 **** -0.159
50561 O 122.002 173.905 144.363 O.3 0 **** -0.452
50562 C 126.767 175.254 143.985 C.3 0 **** -0.159
50563 C 128.299 173.655 142.183 C.3 0 **** -0.159
50564 O 125.39 172.505 138.576 O.3 0 **** -0.452
50565 O 122.014 168.675 140.622 O.3 0 **** -0.452
50566 O 122.273 167.426 138.486 O.2 0 **** -0.419
50567 O 125.633 171.051 136.541 O.2 0 **** -0.419
50568 C 129.111 171.537 129.509 C.3 0 **** -0.159
50569 C 128.53 174.266 130.485 C.3 0 **** -0.159
50570 H 121.386 167.666 144.045 H 0 **** 0.053
50571 H 119.86 168.046 143.191 H 0 **** 0.053
50572 H 117.761 168.957 146.537 H 0 **** 0.053
50573 H 119.085 168.667 147.697 H 0 **** 0.053
50574 H 121.62 169.098 142.571 H 0 **** 0.1268
50575 H 126.65 172.993 140.282 H 0 **** 0.053
50576 H 125.975 174.505 140.907 H 0 **** 0.053
50577 H 126.864 172.118 142.602 H 0 **** 0.053
50578 H 126.251 173.229 144.479 H 0 **** 0.053
50579 H 124.54 175.153 142.888 H 0 **** 0.053
50580 H 124.169 174.261 144.363 H 0 **** 0.053
50581 H 122.842 166.087 136.557 H 0 **** 0.053
50582 H 122.329 167.184 135.264 H 0 **** 0.053
50583 H 124.046 165.581 134.463 H 0 **** 0.053
50584 H 125.165 166.039 135.745 H 0 **** 0.053
50585 H 126.159 165.356 132.824 H 0 **** 0.053
50586 H 124.431 165.533 132.494 H 0 **** 0.053
50587 H 124.787 166.404 130.289 H 0 **** 0.053
50588 H 125.837 164.988 130.45 H 0 **** 0.053
50589 H 127.141 166.85 129.432 H 0 **** 0.053
50590 H 127.754 166.557 131.072 H 0 **** 0.053
50591 H 125.77 168.731 130.183 H 0 **** 0.053
50592 H 128.634 168.845 131.343 H 0 **** 0.053
50593 H 128.131 169.24 129.681 H 0 **** 0.053
50594 H 125.708 172.342 133.619 H 0 **** 0.1268
50595 H 126.8 174.252 132.517 H 0 **** 0.1268
50596 H 119.035 163.125 143.612 H 0 **** 0.053
50597 H 118.278 162.573 145.07 H 0 **** 0.053
50598 H 120.55 162.423 146.223 H 0 **** 0.053
50599 H 121.328 162.951 144.709 H 0 **** 0.053
50600 H 120.459 161.398 144.77 H 0 **** 0.053
50601 H 117.836 163.999 148.328 H 0 **** 0.053
50602 H 118.428 162.821 147.181 H 0 **** 0.053
50603 H 116.809 163.535 146.943 H 0 **** 0.053
50604 H 121.561 165.631 143.36 H 0 **** 0.053
50605 H 120.084 165.931 142.398 H 0 **** 0.053
50606 H 120.506 164.299 142.913 H 0 **** 0.053
50607 H 117.154 167.536 148.12 H 0 **** 0.053
50608 H 118.18 166.387 149.014 H 0 **** 0.053
50609 H 116.666 165.856 148.222 H 0 **** 0.053
50610 H 118.608 172.359 147.74 H 0 **** 0.053
50611 H 119.52 171.105 148.635 H 0 **** 0.053
50612 H 118.005 170.717 147.768 H 0 **** 0.053
50613 H 121.831 173.589 146.653 H 0 **** 0.053
50614 H 120.527 173.19 147.739 H 0 **** 0.053
50615 H 120.155 174.087 146.233 H 0 **** 0.053
50616 H 122.31 174.442 143.628 H 0 **** 0.41
50617 H 127.809 175.152 144.317 H 0 **** 0.053
50618 H 126.202 175.721 144.814 H 0 **** 0.053
50619 H 126.735 175.957 143.129 H 0 **** 0.053
50620 H 128.765 173.076 141.364 H 0 **** 0.053
50621 H 128.91 173.503 143.085 H 0 **** 0.053
50622 H 128.353 174.724 141.895 H 0 **** 0.053
50623 H 125.724 172.228 137.709 H 0 **** 0.41
50624 H 121.891 167.974 139.964 H 0 **** 0.41
50625 H 129.859 170.763 129.765 H 0 **** 0.053
50626 H 129.697 172.441 129.255 H 0 **** 0.053
50627 H 128.604 171.22 128.574 H 0 **** 0.053
50628 H 129.629 174.243 130.606 H 0 **** 0.053
50629 H 128.184 175.204 130.953 H 0 **** 0.053
50630 H 128.314 174.356 129.406 H 0 **** 0.053
50631 C 144.393 193.85 142.798 C.2 0 **** 0
50632 C 144.751 192.557 142.45 C.2 0 **** 0
50633 C 143.788 191.562 142.398 C.2 0 **** 0
50634 C 142.482 191.877 142.68 C.2 0 **** 0
50635 C 142.108 193.182 142.976 C.2 0 **** 0
50636 C 143.067 194.172 143.025 C.2 0 **** 0
50637 C 141.411 190.805 142.655 C.3 0 **** -0.106
50638 C 141.833 189.353 142.477 C.2 0 **** 0
50639 C 143.132 189.031 142.197 C.2 0 **** 0
50640 C 144.178 190.132 142.034 C.3 0 **** -0.106
50641 C 143.496 187.688 142.066 C.2 0 **** 0
50642 C 142.584 186.674 142.288 C.2 0 **** 0
50643 C 141.246 187.002 142.472 C.2 0 **** 0
50644 C 140.862 188.343 142.588 C.2 0 **** 0
50645 C 139.535 188.669 142.829 C.2 0 **** -0.1268
50646 C 138.545 187.748 143.104 C.2 0 **** 0
50647 C 139.008 186.385 143.123 C.2 0 **** 0
50648 C 140.252 186.035 142.592 C.2 0 **** 0.042
50649 C 138.031 185.254 143.501 C.3 0 **** 0
50650 C 136.575 185.621 143.8 C.3 0 **** 0
50651 C 136.133 187.074 143.532 C.2 0 **** 0
50652 C 137.101 188.088 143.233 C.2 0 **** 0
50653 C 135.893 184.722 144.853 C.3 0 **** -0.106
50654 C 136.782 184.504 146.081 C.3 0 **** -0.053
50655 C 138.123 183.803 145.707 C.3 0 **** -0.053
50656 C 138.508 183.966 144.213 C.3 0 **** -0.106
50657 C 136.586 189.363 142.926 C.2 0 **** 0.042
50658 C 135.228 189.603 142.947 C.2 0 **** 0.052
50659 C 134.321 188.588 143.214 C.2 0 **** 0.052
50660 C 134.774 187.315 143.442 C.2 0 **** 0.042
50661 C 132.832 188.819 143.232 C.2 0 **** 0.367
50662 C 132.373 190.211 142.95 C.2 0 **** 0
50663 C 133.241 191.192 142.677 C.2 0 **** 0
50664 C 134.71 190.988 142.655 C.2 0 **** 0.367
50665 C 132.768 192.601 142.404 C.3 0 **** -0.106
50666 C 131.532 192.899 143.289 C.3 0 **** -0.106
50667 C 130.462 191.821 143.115 C.2 0 **** 0
50668 C 130.878 190.479 142.96 C.2 0 **** 0.2405
50669 N 129.995 189.466 142.83 N.2 0 **** -0.481
50670 C 128.701 189.748 142.942 C.2 0 **** 0.2405
50671 C 128.221 191.073 143.067 C.2 0 **** 0
50672 C 129.12 192.107 143.14 C.2 0 **** 0
50673 C 128.66 193.551 143.299 C.3 0 **** -0.106
50674 C 127.173 193.741 142.973 C.3 0 **** -0.106
50675 C 126.338 192.646 143.629 C.3 0 **** -0.106
50676 C 126.726 191.276 143.041 C.3 0 **** -0.053
50677 C 126.023 190.117 143.796 C.3 0 **** -0.106
50678 C 126.502 188.794 143.26 C.2 0 **** 0
50679 C 127.831 188.631 142.867 C.2 0 **** 0
50680 C 128.267 187.373 142.414 C.2 0 **** -0.1268
50681 C 127.382 186.311 142.391 C.2 0 **** -0.1268
50682 C 126.074 186.455 142.819 C.2 0 **** 0
50683 C 125.642 187.701 143.272 C.2 0 **** 0
50684 C 142.671 195.601 143.295 C.3 0 **** -0.106
50685 C 142.56 195.872 144.811 C.3 0 **** -0.159
50686 C 145.463 194.903 142.926 C.3 0 **** -0.159
50687 C 140.648 193.451 143.26 C.3 0 **** -0.159
50688 C 146.189 192.225 142.134 C.3 0 **** -0.159
50689 C 144.953 187.382 141.718 C.3 0 **** -0.159
50690 C 143.121 185.263 142.324 C.3 0 **** -0.159
50691 O 140.493 184.726 142.281 O.3 0 **** -0.452
50692 C 138.122 182.294 145.96 C.3 0 **** -0.159
50693 C 135.956 183.744 147.126 C.3 0 **** -0.159
50694 O 133.935 186.245 143.601 O.3 0 **** -0.452
50695 O 137.422 190.376 142.59 O.3 0 **** -0.452
50696 O 135.451 191.884 142.41 O.2 0 **** -0.419
50697 O 132.076 187.932 143.505 O.2 0 **** -0.419
50698 C 124.22 187.854 143.785 C.3 0 **** -0.159
50699 C 125.172 185.237 142.794 C.3 0 **** -0.159
50700 H 140.858 190.872 143.621 H 0 **** 0.053
50701 H 140.679 191.06 141.85 H 0 **** 0.053
50702 H 144.526 190.13 140.973 H 0 **** 0.053
50703 H 145.059 189.853 142.654 H 0 **** 0.053
50704 H 139.33 189.716 142.837 H 0 **** 0.1268
50705 H 134.942 185.144 145.183 H 0 **** 0.053
50706 H 135.691 183.771 144.355 H 0 **** 0.053
50707 H 137.022 185.497 146.502 H 0 **** 0.053
50708 H 138.912 184.259 146.319 H 0 **** 0.053
50709 H 138.04 183.165 143.635 H 0 **** 0.053
50710 H 139.594 183.842 144.127 H 0 **** 0.053
50711 H 133.548 193.359 142.604 H 0 **** 0.053
50712 H 132.51 192.685 141.334 H 0 **** 0.053
50713 H 131.18 193.912 143.03 H 0 **** 0.053
50714 H 131.859 192.955 144.349 H 0 **** 0.053
50715 H 128.841 193.88 144.341 H 0 **** 0.053
50716 H 129.235 194.233 142.648 H 0 **** 0.053
50717 H 127.023 193.699 141.877 H 0 **** 0.053
50718 H 126.831 194.742 143.296 H 0 **** 0.053
50719 H 125.256 192.824 143.483 H 0 **** 0.053
50720 H 126.516 192.645 144.72 H 0 **** 0.053
50721 H 126.378 191.257 141.98 H 0 **** 0.053
50722 H 126.256 190.197 144.882 H 0 **** 0.053
50723 H 124.924 190.255 143.702 H 0 **** 0.053
50724 H 129.302 187.221 142.084 H 0 **** 0.1268
50725 H 127.731 185.327 142.038 H 0 **** 0.1268
50726 H 141.713 195.869 142.808 H 0 **** 0.053
50727 H 143.384 196.322 142.858 H 0 **** 0.053
50728 H 143.515 195.666 145.321 H 0 **** 0.053
50729 H 141.785 195.241 145.277 H 0 **** 0.053
50730 H 142.295 196.928 145.019 H 0 **** 0.053
50731 H 146.441 194.488 143.24 H 0 **** 0.053
50732 H 145.229 195.662 143.697 H 0 **** 0.053
50733 H 145.629 195.446 141.97 H 0 **** 0.053
50734 H 140.293 192.883 144.149 H 0 **** 0.053
50735 H 140 193.156 142.406 H 0 **** 0.053
50736 H 140.401 194.501 143.473 H 0 **** 0.053
50737 H 146.306 191.347 141.471 H 0 **** 0.053
50738 H 146.773 192.009 143.057 H 0 **** 0.053
50739 H 146.705 193.048 141.602 H 0 **** 0.053
50740 H 145.06 186.466 141.11 H 0 **** 0.053
50741 H 145.581 187.257 142.63 H 0 **** 0.053
50742 H 145.435 188.174 141.101 H 0 **** 0.053
50743 H 142.669 184.665 143.147 H 0 **** 0.053
50744 H 144.222 185.182 142.536 H 0 **** 0.053
50745 H 142.947 184.699 141.371 H 0 **** 0.053
50746 H 139.657 184.267 142.162 H 0 **** 0.41
50747 H 138.004 182.061 147.027 H 0 **** 0.053
50748 H 139.077 181.846 145.629 H 0 **** 0.053
50749 H 137.311 181.792 145.397 H 0 **** 0.053
50750 H 135.057 184.322 147.409 H 0 **** 0.053
50751 H 136.537 183.566 148.044 H 0 **** 0.053
50752 H 135.604 182.769 146.735 H 0 **** 0.053
50753 H 133.026 186.578 143.65 H 0 **** 0.41
50754 H 136.917 191.192 142.451 H 0 **** 0.41
50755 H 124.197 188.348 144.774 H 0 **** 0.053
50756 H 123.692 186.891 143.923 H 0 **** 0.053
50757 H 123.596 188.456 143.092 H 0 **** 0.053
50758 H 124.836 184.953 143.808 H 0 **** 0.053
50759 H 125.681 184.351 142.375 H 0 **** 0.053
50760 H 124.273 185.404 142.176 H 0 **** 0.053
50761 C 116.581 194.499 131.461 C.2 0 **** 0
50762 C 115.548 194.236 132.347 C.2 0 **** 0
50763 C 114.677 193.187 132.104 C.2 0 **** 0
50764 C 114.862 192.407 130.989 C.2 0 **** 0
50765 C 115.931 192.628 130.128 C.2 0 **** 0
50766 C 116.798 193.672 130.374 C.2 0 **** 0
50767 C 113.911 191.268 130.682 C.3 0 **** -0.106
50768 C 112.659 191.111 131.534 C.2 0 **** 0
50769 C 112.468 191.885 132.645 C.2 0 **** 0
50770 C 113.523 192.906 133.062 C.3 0 **** -0.106
50771 C 111.296 191.738 133.394 C.2 0 **** 0
50772 C 110.293 190.878 132.991 C.2 0 **** 0
50773 C 110.531 190.021 131.923 C.2 0 **** 0
50774 C 111.707 190.143 131.173 C.2 0 **** 0
50775 C 111.919 189.326 130.073 C.2 0 **** -0.1268
50776 C 110.98 188.459 129.555 C.2 0 **** 0
50777 C 109.726 188.469 130.263 C.2 0 **** 0
50778 C 109.613 189.052 131.528 C.2 0 **** 0.042
50779 C 108.553 187.614 129.745 C.3 0 **** 0
50780 C 108.78 186.739 128.509 C.3 0 **** 0
50781 C 110.218 186.63 127.963 C.2 0 **** 0
50782 C 111.252 187.492 128.456 C.2 0 **** 0
50783 C 107.533 186.557 127.618 C.3 0 **** -0.106
50784 C 106.814 187.885 127.361 C.3 0 **** -0.053
50785 C 106.316 188.539 128.686 C.3 0 **** -0.053
50786 C 107.08 188.045 129.942 C.3 0 **** -0.106
50787 C 112.546 187.255 127.949 C.2 0 **** 0.042
50788 C 112.771 186.268 127.013 C.2 0 **** 0.052
50789 C 111.748 185.437 126.581 C.2 0 **** 0.052
50790 C 110.491 185.58 127.106 C.2 0 **** 0.042
50791 C 111.969 184.343 125.569 C.2 0 **** 0.367
50792 C 113.357 184.197 125.042 C.2 0 **** 0
50793 C 114.353 184.985 125.465 C.2 0 **** 0
50794 C 114.159 186.068 126.459 C.2 0 **** 0.367
50795 C 115.754 184.837 124.917 C.3 0 **** -0.106
50796 C 115.672 184.446 123.42 C.3 0 **** -0.106
50797 C 114.776 183.223 123.223 C.2 0 **** 0
50798 C 113.615 183.104 124.02 C.2 0 **** 0.2405
50799 N 112.759 182.068 123.888 N.2 0 **** -0.481
50800 C 112.983 181.193 122.913 C.2 0 **** 0.2405
50801 C 114.142 181.24 122.103 C.2 0 **** 0
50802 C 115.041 182.262 122.279 C.2 0 **** 0
50803 C 116.294 182.375 121.419 C.3 0 **** -0.106
50804 C 116.62 181.079 120.669 C.3 0 **** -0.106
50805 C 115.362 180.501 120.029 C.3 0 **** -0.106
50806 C 114.355 180.109 121.128 C.3 0 **** -0.053
50807 C 112.996 179.673 120.519 C.3 0 **** -0.106
50808 C 112.01 179.394 121.622 C.2 0 **** 0
50809 C 112.009 180.171 122.782 C.2 0 **** 0
50810 C 111.047 179.921 123.778 C.2 0 **** -0.1268
50811 C 110.102 178.933 123.583 C.2 0 **** -0.1268
50812 C 110.07 178.187 122.418 C.2 0 **** 0
50813 C 111.021 178.436 121.427 C.2 0 **** 0
50814 C 117.992 193.893 129.48 C.3 0 **** -0.106
50815 C 117.611 194.729 128.241 C.3 0 **** -0.159
50816 C 117.466 195.692 131.7 C.3 0 **** -0.159
50817 C 116.076 191.715 128.933 C.3 0 **** -0.159
50818 C 115.363 195.096 133.574 C.3 0 **** -0.159
50819 C 111.145 192.602 134.646 C.3 0 **** -0.159
50820 C 108.988 190.942 133.748 C.3 0 **** -0.159
50821 O 108.55 188.716 132.318 O.3 0 **** -0.452
50822 C 104.838 188.277 128.984 C.3 0 **** -0.159
50823 C 105.698 187.623 126.342 C.3 0 **** -0.159
50824 O 109.462 184.726 126.813 O.3 0 **** -0.452
50825 O 113.598 187.991 128.388 O.3 0 **** -0.452
50826 O 115.068 186.747 126.811 O.2 0 **** -0.419
50827 O 111.059 183.666 125.187 O.2 0 **** -0.419
50828 C 110.964 177.65 120.128 C.3 0 **** -0.159
50829 C 108.984 177.142 122.263 C.3 0 **** -0.159
50830 H 113.578 191.394 129.626 H 0 **** 0.053
50831 H 114.486 190.311 130.722 H 0 **** 0.053
50832 H 113.959 192.583 134.038 H 0 **** 0.053
50833 H 113.002 193.87 133.255 H 0 **** 0.053
50834 H 112.87 189.449 129.606 H 0 **** 0.1268
50835 H 107.791 186.11 126.656 H 0 **** 0.053
50836 H 106.876 185.866 128.151 H 0 **** 0.053
50837 H 107.539 188.575 126.893 H 0 **** 0.053
50838 H 106.467 189.622 128.593 H 0 **** 0.053
50839 H 106.596 187.14 130.321 H 0 **** 0.053
50840 H 106.99 188.814 130.719 H 0 **** 0.053
50841 H 116.351 185.762 125.018 H 0 **** 0.053
50842 H 116.278 184.056 125.496 H 0 **** 0.053
50843 H 116.706 184.295 123.065 H 0 **** 0.053
50844 H 115.279 185.313 122.847 H 0 **** 0.053
50845 H 116.159 183.19 120.682 H 0 **** 0.053
50846 H 117.178 182.643 122.026 H 0 **** 0.053
50847 H 117.039 180.334 121.372 H 0 **** 0.053
50848 H 117.4 181.259 119.906 H 0 **** 0.053
50849 H 115.598 179.618 119.405 H 0 **** 0.053
50850 H 114.906 181.252 119.359 H 0 **** 0.053
50851 H 114.782 179.235 121.677 H 0 **** 0.053
50852 H 112.615 180.487 119.862 H 0 **** 0.053
50853 H 113.174 178.796 119.86 H 0 **** 0.053
50854 H 111.034 180.507 124.706 H 0 **** 0.1268
50855 H 109.349 178.746 124.365 H 0 **** 0.1268
50856 H 118.45 192.94 129.15 H 0 **** 0.053
50857 H 118.818 194.4 130.007 H 0 **** 0.053
50858 H 117.201 195.709 128.535 H 0 **** 0.053
50859 H 116.853 194.216 127.626 H 0 **** 0.053
50860 H 118.488 194.92 127.591 H 0 **** 0.053
50861 H 116.945 196.524 132.211 H 0 **** 0.053
50862 H 117.852 196.139 130.765 H 0 **** 0.053
50863 H 118.342 195.431 132.329 H 0 **** 0.053
50864 H 115.195 191.785 128.256 H 0 **** 0.053
50865 H 116.17 190.65 129.235 H 0 **** 0.053
50866 H 116.947 191.921 128.292 H 0 **** 0.053
50867 H 114.838 194.58 134.401 H 0 **** 0.053
50868 H 114.777 196.014 133.346 H 0 **** 0.053
50869 H 116.326 195.42 134.013 H 0 **** 0.053
50870 H 110.564 192.1 135.44 H 0 **** 0.053
50871 H 110.646 193.573 134.424 H 0 **** 0.053
50872 H 112.116 192.844 135.135 H 0 **** 0.053
50873 H 108.108 190.891 133.069 H 0 **** 0.053
50874 H 108.813 191.901 134.307 H 0 **** 0.053
50875 H 108.873 190.12 134.502 H 0 **** 0.053
50876 H 108.188 187.875 132.026 H 0 **** 0.41
50877 H 104.184 188.723 128.222 H 0 **** 0.053
50878 H 104.556 188.72 129.958 H 0 **** 0.053
50879 H 104.625 187.192 129.043 H 0 **** 0.053
50880 H 106.117 187.232 125.396 H 0 **** 0.053
50881 H 105.149 188.546 126.103 H 0 **** 0.053
50882 H 104.977 186.868 126.713 H 0 **** 0.053
50883 H 109.753 184.133 126.104 H 0 **** 0.41
50884 H 114.402 187.738 127.91 H 0 **** 0.41
50885 H 111.003 178.32 119.248 H 0 **** 0.053
50886 H 110.037 177.058 120.007 H 0 **** 0.053
50887 H 111.806 176.933 120.044 H 0 **** 0.053
50888 H 108.309 177.372 121.418 H 0 **** 0.053
50889 H 108.346 177.069 123.161 H 0 **** 0.053
50890 H 109.403 176.135 122.092 H 0 **** 0.053
50891 C 132.435 171.851 135.93 C.2 0 **** 0
50892 C 133.167 170.691 135.728 C.2 0 **** 0
50893 C 134.147 170.323 136.637 C.2 0 **** 0
50894 C 134.369 171.111 137.739 C.2 0 **** 0
50895 C 133.602 172.245 137.976 C.2 0 **** 0
50896 C 132.625 172.608 137.072 C.2 0 **** 0
50897 C 135.449 170.747 138.738 C.3 0 **** -0.106
50898 C 136.389 169.594 138.412 C.2 0 **** 0
50899 C 136.174 168.806 137.316 C.2 0 **** 0
50900 C 134.97 169.058 136.411 C.3 0 **** -0.106
50901 C 137.069 167.77 137.026 C.2 0 **** 0
50902 C 138.207 167.575 137.784 C.2 0 **** 0
50903 C 138.37 168.308 138.954 C.2 0 **** 0
50904 C 137.474 169.337 139.268 C.2 0 **** 0
50905 C 137.668 170.106 140.405 C.2 0 **** -0.1268
50906 C 138.782 170.029 141.216 C.2 0 **** 0
50907 C 139.754 169.062 140.778 C.2 0 **** 0
50908 C 139.432 168.091 139.826 C.2 0 **** 0.042
50909 C 141.089 168.927 141.537 C.3 0 **** 0
50910 C 141.315 169.803 142.772 C.3 0 **** 0
50911 C 140.125 170.638 143.286 C.2 0 **** 0
50912 C 138.93 170.761 142.504 C.2 0 **** 0
50913 C 142.784 170.215 143.003 C.3 0 **** -0.106
50914 C 143.449 170.711 141.715 C.3 0 **** -0.053
50915 C 143.469 169.608 140.614 C.3 0 **** -0.053
50916 C 142.396 168.508 140.823 C.3 0 **** -0.106
50917 C 137.874 171.48 143.101 C.2 0 **** 0.042
50918 C 138.018 172.046 144.349 C.2 0 **** 0.052
50919 C 139.181 171.881 145.086 C.2 0 **** 0.052
50920 C 140.204 171.125 144.578 C.2 0 **** 0.042
50921 C 139.361 172.478 146.457 C.2 0 **** 0.367
50922 C 138.216 173.271 146.992 C.2 0 **** 0
50923 C 137.084 173.421 146.294 C.2 0 **** 0
50924 C 136.884 172.843 144.943 C.2 0 **** 0.367
50925 C 135.932 174.234 146.838 C.3 0 **** -0.106
50926 C 136.495 175.429 147.647 C.3 0 **** -0.106
50927 C 137.495 174.954 148.701 C.2 0 **** 0
50928 C 138.363 173.888 148.371 C.2 0 **** 0.2405
50929 N 139.294 173.429 149.236 N.2 0 **** -0.481
50930 C 139.434 174.062 150.396 C.2 0 **** 0.2405
50931 C 138.571 175.107 150.8 C.2 0 **** 0
50932 C 137.598 175.544 149.936 C.2 0 **** 0
50933 C 136.665 176.691 150.305 C.3 0 **** -0.106
50934 C 136.676 177.013 151.804 C.3 0 **** -0.106
50935 C 138.105 177.051 152.331 C.3 0 **** -0.106
50936 C 138.733 175.647 152.202 C.3 0 **** -0.053
50937 C 140.23 175.684 152.563 C.3 0 **** -0.106
50938 C 140.878 174.353 152.312 C.2 0 **** 0
50939 C 140.475 173.575 151.227 C.2 0 **** 0
50940 C 141.108 172.341 150.988 C.2 0 **** -0.1268
50941 C 142.138 171.931 151.813 C.2 0 **** -0.1268
50942 C 142.577 172.72 152.861 C.2 0 **** 0
50943 C 141.954 173.947 153.095 C.2 0 **** 0
50944 C 131.75 173.805 137.34 C.3 0 **** -0.106
50945 C 132.431 175.108 136.87 C.3 0 **** -0.159
50946 C 131.428 172.278 134.894 C.3 0 **** -0.159
50947 C 133.896 173.049 139.222 C.3 0 **** -0.159
50948 C 132.907 169.83 134.516 C.3 0 **** -0.159
50949 C 136.766 166.896 135.809 C.3 0 **** -0.159
50950 C 139.21 166.569 137.271 C.3 0 **** -0.159
50951 O 140.224 166.983 139.719 O.3 0 **** -0.452
50952 C 144.8 168.859 140.516 C.3 0 **** -0.159
50953 C 144.839 171.246 142.082 C.3 0 **** -0.159
50954 O 141.333 170.826 145.293 O.3 0 **** -0.452
50955 O 136.687 171.613 142.456 O.3 0 **** -0.452
50956 O 135.865 172.999 144.353 O.2 0 **** -0.419
50957 O 140.392 172.353 147.053 O.2 0 **** -0.419
50958 C 142.465 174.836 154.218 C.3 0 **** -0.159
50959 C 143.732 172.215 153.704 C.3 0 **** -0.159
50960 H 136.079 171.655 138.886 H 0 **** 0.053
50961 H 134.96 170.535 139.721 H 0 **** 0.053
50962 H 134.282 168.182 136.49 H 0 **** 0.053
50963 H 135.336 169.075 135.36 H 0 **** 0.053
50964 H 136.899 170.82 140.594 H 0 **** 0.1268
50965 H 142.866 170.998 143.759 H 0 **** 0.053
50966 H 143.295 169.325 143.376 H 0 **** 0.053
50967 H 142.853 171.56 141.334 H 0 **** 0.053
50968 H 143.276 170.102 139.652 H 0 **** 0.053
50969 H 142.805 167.729 141.473 H 0 **** 0.053
50970 H 142.188 168.047 139.849 H 0 **** 0.053
50971 H 135.267 174.617 146.042 H 0 **** 0.053
50972 H 135.314 173.584 147.482 H 0 **** 0.053
50973 H 135.634 175.971 148.073 H 0 **** 0.053
50974 H 136.98 176.138 146.943 H 0 **** 0.053
50975 H 136.961 177.598 149.743 H 0 **** 0.053
50976 H 135.622 176.469 150.018 H 0 **** 0.053
50977 H 136.117 176.235 152.357 H 0 **** 0.053
50978 H 136.158 177.97 152 H 0 **** 0.053
50979 H 138.14 177.382 153.386 H 0 **** 0.053
50980 H 138.696 177.783 151.75 H 0 **** 0.053
50981 H 138.211 174.971 152.918 H 0 **** 0.053
50982 H 140.661 176.45 151.893 H 0 **** 0.053
50983 H 140.354 176.052 153.602 H 0 **** 0.053
50984 H 140.793 171.698 150.155 H 0 **** 0.1268
50985 H 142.624 170.96 151.625 H 0 **** 0.1268
50986 H 131.487 173.899 138.412 H 0 **** 0.053
50987 H 130.766 173.721 136.846 H 0 **** 0.053
50988 H 132.659 175.069 135.792 H 0 **** 0.053
50989 H 133.375 175.287 137.41 H 0 **** 0.053
50990 H 131.783 175.992 137.038 H 0 **** 0.053
50991 H 131.702 171.959 133.869 H 0 **** 0.053
50992 H 131.327 173.377 134.82 H 0 **** 0.053
50993 H 130.414 171.869 135.103 H 0 **** 0.053
50994 H 134.934 173.45 139.213 H 0 **** 0.053
50995 H 133.792 172.437 140.144 H 0 **** 0.053
50996 H 133.251 173.927 139.372 H 0 **** 0.053
50997 H 133.19 168.769 134.658 H 0 **** 0.053
50998 H 133.467 170.195 133.626 H 0 **** 0.053
50999 H 131.835 169.799 134.242 H 0 **** 0.053
51000 H 137.112 165.855 135.938 H 0 **** 0.053
51001 H 137.238 167.296 134.882 H 0 **** 0.053
51002 H 135.677 166.795 135.598 H 0 **** 0.053
51003 H 140.256 166.932 137.376 H 0 **** 0.053
51004 H 139.135 166.347 136.172 H 0 **** 0.053
51005 H 139.148 165.578 137.792 H 0 **** 0.053
51006 H 140.718 166.862 140.534 H 0 **** 0.41
51007 H 145.621 169.525 140.22 H 0 **** 0.053
51008 H 144.737 168.057 139.755 H 0 **** 0.053
51009 H 145.064 168.378 141.479 H 0 **** 0.053
51010 H 144.758 172.076 142.808 H 0 **** 0.053
51011 H 145.366 171.631 141.196 H 0 **** 0.053
51012 H 145.465 170.462 142.554 H 0 **** 0.053
51013 H 141.314 171.338 146.114 H 0 **** 0.41
51014 H 136.087 172.169 142.975 H 0 **** 0.41
51015 H 142.651 175.868 153.869 H 0 **** 0.053
51016 H 143.425 174.496 154.651 H 0 **** 0.053
51017 H 141.744 174.887 155.059 H 0 **** 0.053
51018 H 144.615 172.875 153.633 H 0 **** 0.053
51019 H 144.067 171.21 153.391 H 0 **** 0.053
51020 H 143.457 172.134 154.77 H 0 **** 0.053
51021 C 115.101 92.9044 118.989 C.2 0 **** 0
51022 C 115.061 91.8797 118.057 C.2 0 **** 0
51023 C 115.665 92.0449 116.82 C.2 0 **** 0
51024 C 116.311 93.2236 116.541 C.2 0 **** 0
51025 C 116.403 94.2332 117.492 C.2 0 **** 0
51026 C 115.803 94.0664 118.723 C.2 0 **** 0
51027 C 116.961 93.4425 115.19 C.3 0 **** -0.106
51028 C 116.741 92.4066 114.096 C.2 0 **** 0
51029 C 116.097 91.231 114.366 C.2 0 **** 0
51030 C 115.608 90.929 115.78 C.3 0 **** -0.106
51031 C 115.885 90.3096 113.335 C.2 0 **** 0
51032 C 116.246 90.5959 112.034 C.2 0 **** 0
51033 C 116.99 91.7426 111.779 C.2 0 **** 0
51034 C 117.227 92.6674 112.803 C.2 0 **** 0
51035 C 117.919 93.839 112.537 C.2 0 **** -0.1268
51036 C 118.297 94.2501 111.275 C.2 0 **** 0
51037 C 117.905 93.3442 110.227 C.2 0 **** 0
51038 C 117.486 92.0426 110.513 C.2 0 **** 0.042
51039 C 118.184 93.7155 108.757 C.3 0 **** 0
51040 C 118.919 95.026 108.464 C.3 0 **** 0
51041 C 119.491 95.8093 109.662 C.2 0 **** 0
51042 C 119.151 95.4399 111.005 C.2 0 **** 0
51043 C 118.506 95.7081 107.142 C.3 0 **** -0.106
51044 C 116.984 95.7548 106.973 C.3 0 **** -0.053
51045 C 116.362 94.3256 106.943 C.3 0 **** -0.053
51046 C 117.259 93.2484 107.607 C.3 0 **** -0.106
51047 C 119.79 96.1695 112.027 C.2 0 **** 0.042
51048 C 120.665 97.1925 111.727 C.2 0 **** 0.052
51049 C 120.99 97.5018 110.415 C.2 0 **** 0.052
51050 C 120.452 96.7671 109.392 C.2 0 **** 0.042
51051 C 121.951 98.6057 110.059 C.2 0 **** 0.367
51052 C 122.542 99.3651 111.2 C.2 0 **** 0
51053 C 122.245 99.0623 112.469 C.2 0 **** 0
51054 C 121.302 97.9816 112.842 C.2 0 **** 0.367
51055 C 122.84 99.8428 113.618 C.3 0 **** -0.106
51056 C 122.982 101.328 113.2 C.3 0 **** -0.106
51057 C 123.743 101.454 111.88 C.2 0 **** 0
51058 C 123.515 100.485 110.877 C.2 0 **** 0.2405
51059 N 124.13 100.539 109.676 N.2 0 **** -0.481
51060 C 124.893 101.595 109.413 C.2 0 **** 0.2405
51061 C 125.184 102.582 110.384 C.2 0 **** 0
51062 C 124.607 102.49 111.626 C.2 0 **** 0
51063 C 124.867 103.536 112.703 C.3 0 **** -0.106
51064 C 126.087 104.414 112.397 C.3 0 **** -0.106
51065 C 126.064 104.873 110.943 C.3 0 **** -0.106
51066 C 126.181 103.651 110.012 C.3 0 **** -0.053
51067 C 125.994 104.053 108.525 C.3 0 **** -0.106
51068 C 126.017 102.822 107.658 C.2 0 **** 0
51069 C 125.449 101.629 108.109 C.2 0 **** 0
51070 C 125.441 100.506 107.263 C.2 0 **** -0.1268
51071 C 125.969 100.606 105.99 C.2 0 **** -0.1268
51072 C 126.496 101.796 105.521 C.2 0 **** 0
51073 C 126.501 102.912 106.357 C.2 0 **** 0
51074 C 115.937 95.1296 119.783 C.3 0 **** -0.106
51075 C 114.871 96.2311 119.603 C.3 0 **** -0.159
51076 C 114.374 92.7391 120.299 C.3 0 **** -0.159
51077 C 117.147 95.4937 117.114 C.3 0 **** -0.159
51078 C 114.354 90.5858 118.379 C.3 0 **** -0.159
51079 C 115.191 88.9955 113.695 C.3 0 **** -0.159
51080 C 115.792 89.6302 110.965 C.3 0 **** -0.159
51081 O 117.493 91.1107 109.514 O.3 0 **** -0.452
51082 C 116.084 93.8035 105.532 C.3 0 **** -0.159
51083 C 116.678 96.5891 105.724 C.3 0 **** -0.159
51084 O 120.814 96.9391 108.083 O.3 0 **** -0.452
51085 O 119.565 95.8649 113.33 O.3 0 **** -0.452
51086 O 121.063 97.7416 113.982 O.2 0 **** -0.419
51087 O 122.184 98.8732 108.916 O.2 0 **** -0.419
51088 C 127.039 104.234 105.833 C.3 0 **** -0.159
51089 C 127.028 101.837 104.102 C.3 0 **** -0.159
51090 H 116.589 94.4183 114.8 H 0 **** 0.053
51091 H 118.061 93.5611 115.345 H 0 **** 0.053
51092 H 116.19 90.062 116.175 H 0 **** 0.053
51093 H 114.551 90.589 115.706 H 0 **** 0.053
51094 H 118.106 94.4479 113.392 H 0 **** 0.1268
51095 H 118.894 96.7266 107.08 H 0 **** 0.053
51096 H 118.96 95.12 106.341 H 0 **** 0.053
51097 H 116.565 96.2903 107.844 H 0 **** 0.053
51098 H 115.412 94.3709 107.492 H 0 **** 0.053
51099 H 117.956 92.8552 106.861 H 0 **** 0.053
51100 H 116.616 92.4191 107.925 H 0 **** 0.053
51101 H 122.229 99.7825 114.537 H 0 **** 0.053
51102 H 123.826 99.4117 113.865 H 0 **** 0.053
51103 H 123.465 101.86 114.037 H 0 **** 0.053
51104 H 121.967 101.77 113.108 H 0 **** 0.053
51105 H 123.977 104.186 112.804 H 0 **** 0.053
51106 H 125.03 103.068 113.691 H 0 **** 0.053
51107 H 127.016 103.84 112.578 H 0 **** 0.053
51108 H 126.12 105.282 113.082 H 0 **** 0.053
51109 H 126.885 105.585 110.733 H 0 **** 0.053
51110 H 125.118 105.407 110.735 H 0 **** 0.053
51111 H 127.213 103.238 110.13 H 0 **** 0.053
51112 H 125.021 104.583 108.412 H 0 **** 0.053
51113 H 126.784 104.789 108.261 H 0 **** 0.053
51114 H 125.014 99.5527 107.598 H 0 **** 0.1268
51115 H 125.955 99.7236 105.33 H 0 **** 0.1268
51116 H 116.942 95.5944 119.784 H 0 **** 0.053
51117 H 115.85 94.7153 120.803 H 0 **** 0.053
51118 H 113.853 95.8096 119.65 H 0 **** 0.053
51119 H 114.981 96.7435 118.633 H 0 **** 0.053
51120 H 114.944 97.0043 120.394 H 0 **** 0.053
51121 H 113.48 92.0911 120.216 H 0 **** 0.053
51122 H 113.982 93.6951 120.695 H 0 **** 0.053
51123 H 115.026 92.2999 121.086 H 0 **** 0.053
51124 H 116.667 96.0086 116.252 H 0 **** 0.053
51125 H 118.198 95.2819 116.822 H 0 **** 0.053
51126 H 117.205 96.2549 117.906 H 0 **** 0.053
51127 H 114.733 89.7191 117.804 H 0 **** 0.053
51128 H 113.263 90.6532 118.174 H 0 **** 0.053
51129 H 114.473 90.2917 119.44 H 0 **** 0.053
51130 H 115.532 88.1512 113.07 H 0 **** 0.053
51131 H 114.084 89.0674 113.591 H 0 **** 0.053
51132 H 115.394 88.6597 114.738 H 0 **** 0.053
51133 H 115.422 90.1555 110.057 H 0 **** 0.053
51134 H 114.915 88.9882 111.253 H 0 **** 0.053
51135 H 116.597 88.9235 110.636 H 0 **** 0.053
51136 H 118.091 91.393 108.817 H 0 **** 0.41
51137 H 115.334 94.4155 105.013 H 0 **** 0.053
51138 H 115.692 92.7691 105.572 H 0 **** 0.053
51139 H 117.007 93.7814 104.92 H 0 **** 0.053
51140 H 117.077 97.6153 105.832 H 0 **** 0.053
51141 H 115.594 96.6725 105.553 H 0 **** 0.053
51142 H 117.147 96.154 104.818 H 0 **** 0.053
51143 H 121.374 97.7283 108.025 H 0 **** 0.41
51144 H 120.045 96.4822 113.902 H 0 **** 0.41
51145 H 126.329 105.061 106.018 H 0 **** 0.053
51146 H 127.219 104.237 104.741 H 0 **** 0.053
51147 H 128.004 104.503 106.31 H 0 **** 0.053
51148 H 126.457 102.54 103.469 H 0 **** 0.053
51149 H 126.967 100.852 103.607 H 0 **** 0.053
51150 H 128.089 102.14 104.069 H 0 **** 0.053
51151 C 107.128 166.424 174.105 C.2 0 **** 0
51152 C 106.806 165.091 173.905 C.2 0 **** 0
51153 C 107.524 164.101 174.555 C.2 0 **** 0
51154 C 108.542 164.458 175.405 C.2 0 **** 0
51155 C 108.834 165.794 175.651 C.2 0 **** 0
51156 C 108.116 166.779 175.005 C.2 0 **** 0
51157 C 109.361 163.397 176.113 C.3 0 **** -0.106
51158 C 109.147 161.937 175.737 C.2 0 **** 0
51159 C 108.136 161.573 174.891 C.2 0 **** 0
51160 C 107.189 162.629 174.326 C.3 0 **** -0.106
51161 C 107.98 160.228 174.542 C.2 0 **** 0
51162 C 108.873 159.268 174.977 C.2 0 **** 0
51163 C 109.836 159.621 175.916 C.2 0 **** 0
51164 C 109.994 160.961 176.29 C.2 0 **** 0
51165 C 110.991 161.322 177.183 C.2 0 **** -0.1268
51166 C 111.962 160.463 177.654 C.2 0 **** 0
51167 C 111.857 159.125 177.132 C.2 0 **** 0
51168 C 110.698 158.689 176.485 C.2 0 **** 0.042
51169 C 112.925 158.077 177.504 C.3 0 **** 0
51170 C 114.045 158.489 178.464 C.3 0 **** 0
51171 C 113.938 159.871 179.139 C.2 0 **** 0
51172 C 112.951 160.817 178.71 C.2 0 **** 0
51173 C 115.396 157.789 178.206 C.3 0 **** -0.106
51174 C 115.768 157.792 176.72 C.3 0 **** -0.053
51175 C 114.711 157.038 175.857 C.3 0 **** -0.053
51176 C 113.32 156.936 176.537 C.3 0 **** -0.106
51177 C 112.885 162.017 179.446 C.2 0 **** 0.042
51178 C 113.751 162.255 180.492 C.2 0 **** 0.052
51179 C 114.675 161.302 180.895 C.2 0 **** 0.052
51180 C 114.72 160.09 180.258 C.2 0 **** 0.042
51181 C 115.624 161.53 182.042 C.2 0 **** 0.367
51182 C 115.526 162.85 182.733 C.2 0 **** 0
51183 C 114.627 163.768 182.36 C.2 0 **** 0
51184 C 113.684 163.566 181.234 C.2 0 **** 0.367
51185 C 114.541 165.106 183.058 C.3 0 **** -0.106
51186 C 115.967 165.554 183.467 C.3 0 **** -0.106
51187 C 116.675 164.46 184.268 C.2 0 **** 0
51188 C 116.467 163.113 183.894 C.2 0 **** 0.2405
51189 N 117.076 162.091 184.534 N.2 0 **** -0.481
51190 C 117.964 162.386 185.478 C.2 0 **** 0.2405
51191 C 118.193 163.711 185.917 C.2 0 **** 0
51192 C 117.527 164.744 185.306 C.2 0 **** 0
51193 C 117.753 166.192 185.722 C.3 0 **** -0.106
51194 C 118.448 166.319 187.083 C.3 0 **** -0.106
51195 C 119.627 165.356 187.172 C.3 0 **** -0.106
51196 C 119.117 163.904 187.094 C.3 0 **** -0.053
51197 C 120.293 162.896 187.013 C.3 0 **** -0.106
51198 C 119.756 161.5 186.838 C.2 0 **** 0
51199 C 118.62 161.272 186.059 C.2 0 **** 0
51200 C 118.166 159.954 185.872 C.2 0 **** -0.1268
51201 C 118.864 158.904 186.436 C.2 0 **** -0.1268
51202 C 120.014 159.119 187.175 C.2 0 **** 0
51203 C 120.469 160.424 187.358 C.2 0 **** 0
51204 C 108.384 168.232 175.3 C.3 0 **** -0.106
51205 C 109.555 168.766 174.448 C.3 0 **** -0.159
51206 C 106.388 167.485 173.332 C.3 0 **** -0.159
51207 C 109.957 166.107 176.613 C.3 0 **** -0.159
51208 C 105.679 164.712 172.976 C.3 0 **** -0.159
51209 C 106.815 159.868 173.621 C.3 0 **** -0.159
51210 C 108.74 157.886 174.383 C.3 0 **** -0.159
51211 O 110.482 157.346 176.35 O.3 0 **** -0.452
51212 C 115.102 155.598 175.522 C.3 0 **** -0.159
51213 C 117.188 157.227 176.592 C.3 0 **** -0.159
51214 O 115.524 159.063 180.672 O.3 0 **** -0.452
51215 O 111.954 162.956 179.144 O.3 0 **** -0.452
51216 O 112.898 164.406 180.933 O.2 0 **** -0.419
51217 O 116.435 160.704 182.343 O.2 0 **** -0.419
51218 C 121.756 160.663 188.131 C.3 0 **** -0.159
51219 C 120.743 157.914 187.736 C.3 0 **** -0.159
51220 H 110.434 163.633 175.927 H 0 **** 0.053
51221 H 109.198 163.505 177.213 H 0 **** 0.053
51222 H 106.168 162.442 174.739 H 0 **** 0.053
51223 H 107.117 162.465 173.228 H 0 **** 0.053
51224 H 110.992 162.354 177.455 H 0 **** 0.1268
51225 H 116.204 158.261 178.767 H 0 **** 0.053
51226 H 115.281 156.764 178.567 H 0 **** 0.053
51227 H 115.796 158.844 176.382 H 0 **** 0.053
51228 H 114.597 157.597 174.919 H 0 **** 0.053
51229 H 113.297 156.044 177.169 H 0 **** 0.053
51230 H 112.567 156.801 175.751 H 0 **** 0.053
51231 H 114.084 165.889 182.425 H 0 **** 0.053
51232 H 113.896 165 183.947 H 0 **** 0.053
51233 H 115.866 166.505 184.018 H 0 **** 0.053
51234 H 116.541 165.797 182.548 H 0 **** 0.053
51235 H 118.371 166.7 184.957 H 0 **** 0.053
51236 H 116.801 166.75 185.778 H 0 **** 0.053
51237 H 117.731 166.085 187.892 H 0 **** 0.053
51238 H 118.779 167.361 187.252 H 0 **** 0.053
51239 H 120.196 165.504 188.11 H 0 **** 0.053
51240 H 120.329 165.548 186.34 H 0 **** 0.053
51241 H 118.55 163.697 188.034 H 0 **** 0.053
51242 H 120.944 163.166 186.151 H 0 **** 0.053
51243 H 120.917 163.013 187.926 H 0 **** 0.053
51244 H 117.267 159.748 185.277 H 0 **** 0.1268
51245 H 118.505 157.874 186.282 H 0 **** 0.1268
51246 H 108.605 168.407 176.372 H 0 **** 0.053
51247 H 107.497 168.866 175.12 H 0 **** 0.053
51248 H 109.345 168.656 173.372 H 0 **** 0.053
51249 H 110.491 168.227 174.669 H 0 **** 0.053
51250 H 109.743 169.841 174.64 H 0 **** 0.053
51251 H 106.042 167.134 172.34 H 0 **** 0.053
51252 H 107.015 168.368 173.106 H 0 **** 0.053
51253 H 105.491 167.852 173.88 H 0 **** 0.053
51254 H 110.93 165.704 176.252 H 0 **** 0.053
51255 H 109.776 165.665 177.617 H 0 **** 0.053
51256 H 110.137 167.178 176.788 H 0 **** 0.053
51257 H 105.223 163.73 173.21 H 0 **** 0.053
51258 H 106.019 164.662 171.917 H 0 **** 0.053
51259 H 104.836 165.428 173.019 H 0 **** 0.053
51260 H 106.411 158.86 173.822 H 0 **** 0.053
51261 H 107.106 159.907 172.546 H 0 **** 0.053
51262 H 105.934 160.54 173.74 H 0 **** 0.053
51263 H 109.729 157.442 174.132 H 0 **** 0.053
51264 H 108.194 157.846 173.401 H 0 **** 0.053
51265 H 108.214 157.163 175.059 H 0 **** 0.053
51266 H 111.002 156.871 177.004 H 0 **** 0.41
51267 H 116.008 155.557 174.903 H 0 **** 0.053
51268 H 114.293 155.1 174.954 H 0 **** 0.053
51269 H 115.274 155.003 176.44 H 0 **** 0.053
51270 H 117.907 157.845 177.163 H 0 **** 0.053
51271 H 117.522 157.215 175.544 H 0 **** 0.053
51272 H 117.254 156.197 176.997 H 0 **** 0.053
51273 H 116.112 159.399 181.366 H 0 **** 0.41
51274 H 112.075 163.736 179.706 H 0 **** 0.41
51275 H 122.446 161.324 187.573 H 0 **** 0.053
51276 H 122.33 159.739 188.332 H 0 **** 0.053
51277 H 121.562 161.132 189.117 H 0 **** 0.053
51278 H 121.759 157.813 187.312 H 0 **** 0.053
51279 H 120.217 156.969 187.514 H 0 **** 0.053
51280 H 120.842 157.968 188.834 H 0 **** 0.053
51281 C 117.385 166.406 129.156 C.2 0 **** 0
51282 C 118.566 166.123 129.824 C.2 0 **** 0
51283 C 118.842 164.825 130.223 C.2 0 **** 0
51284 C 117.941 163.828 129.937 C.2 0 **** 0
51285 C 116.783 164.095 129.218 C.2 0 **** 0
51286 C 116.512 165.387 128.818 C.2 0 **** 0
51287 C 118.203 162.404 130.383 C.3 0 **** -0.106
51288 C 119.391 162.13 131.294 C.2 0 **** 0
51289 C 120.29 163.116 131.584 C.2 0 **** 0
51290 C 120.131 164.508 130.977 C.3 0 **** -0.106
51291 C 121.356 162.842 132.446 C.2 0 **** 0
51292 C 121.48 161.617 133.069 C.2 0 **** 0
51293 C 120.626 160.586 132.695 C.2 0 **** 0
51294 C 119.563 160.838 131.82 C.2 0 **** 0
51295 C 118.676 159.823 131.492 C.2 0 **** -0.1268
51296 C 118.674 158.574 132.076 C.2 0 **** 0
51297 C 119.69 158.399 133.081 C.2 0 **** 0
51298 C 120.757 159.294 133.196 C.2 0 **** 0.042
51299 C 119.753 157.081 133.879 C.3 0 **** 0
51300 C 118.75 155.976 133.538 C.3 0 **** 0
51301 C 117.855 156.178 132.299 C.2 0 **** 0
51302 C 117.808 157.447 131.633 C.2 0 **** 0
51303 C 118.327 155.105 134.74 C.3 0 **** -0.106
51304 C 117.979 155.953 135.967 C.3 0 **** -0.053
51305 C 119.196 156.802 136.447 C.3 0 **** -0.053
51306 C 120.258 157.036 135.341 C.3 0 **** -0.106
51307 C 117.02 157.502 130.465 C.2 0 **** 0.042
51308 C 116.323 156.396 130.028 C.2 0 **** 0.052
51309 C 116.417 155.178 130.685 C.2 0 **** 0.052
51310 C 117.232 155.059 131.779 C.2 0 **** 0.042
51311 C 115.676 153.951 130.222 C.2 0 **** 0.367
51312 C 114.821 154.109 129.009 C.2 0 **** 0
51313 C 114.738 155.277 128.36 C.2 0 **** 0
51314 C 115.457 156.498 128.798 C.2 0 **** 0.367
51315 C 113.861 155.432 127.139 C.3 0 **** -0.106
51316 C 112.59 154.564 127.317 C.3 0 **** -0.106
51317 C 112.957 153.12 127.66 C.2 0 **** 0
51318 C 114.06 152.892 128.515 C.2 0 **** 0.2405
51319 N 114.432 151.649 128.886 N.2 0 **** -0.481
51320 C 113.671 150.628 128.502 C.2 0 **** 0.2405
51321 C 112.574 150.788 127.624 C.2 0 **** 0
51322 C 112.235 152.048 127.199 C.2 0 **** 0
51323 C 111.049 152.281 126.271 C.3 0 **** -0.106
51324 C 110.568 150.997 125.586 C.3 0 **** -0.106
51325 C 110.475 149.856 126.594 C.3 0 **** -0.106
51326 C 111.878 149.538 127.146 C.3 0 **** -0.053
51327 C 111.81 148.499 128.296 C.3 0 **** -0.106
51328 C 113.184 148.289 128.875 C.2 0 **** 0
51329 C 114.075 149.358 128.987 C.2 0 **** 0
51330 C 115.335 149.147 129.574 C.2 0 **** -0.1268
51331 C 115.663 147.895 130.057 C.2 0 **** -0.1268
51332 C 114.769 146.841 129.988 C.2 0 **** 0
51333 C 113.518 147.049 129.409 C.2 0 **** 0
51334 C 115.285 165.685 127.993 C.3 0 **** -0.106
51335 C 114.047 165.885 128.891 C.3 0 **** -0.159
51336 C 117.054 167.831 128.8 C.3 0 **** -0.159
51337 C 115.85 162.942 128.928 C.3 0 **** -0.159
51338 C 119.553 167.221 130.134 C.3 0 **** -0.159
51339 C 122.351 163.966 132.711 C.3 0 **** -0.159
51340 C 122.545 161.49 134.133 C.3 0 **** -0.159
51341 O 121.877 158.905 133.875 O.3 0 **** -0.452
51342 C 119.962 156.178 137.615 C.3 0 **** -0.159
51343 C 117.419 155.013 137.041 C.3 0 **** -0.159
51344 O 117.461 153.865 132.409 O.3 0 **** -0.452
51345 O 116.948 158.647 129.741 O.3 0 **** -0.452
51346 O 115.358 157.517 128.196 O.2 0 **** -0.419
51347 O 115.746 152.923 130.832 O.2 0 **** -0.419
51348 C 112.516 145.907 129.37 C.3 0 **** -0.159
51349 C 115.189 145.504 130.568 C.3 0 **** -0.159
51350 H 117.289 162.055 130.918 H 0 **** 0.053
51351 H 118.302 161.764 129.472 H 0 **** 0.053
51352 H 120.987 164.69 130.284 H 0 **** 0.053
51353 H 120.231 165.249 131.801 H 0 **** 0.053
51354 H 117.94 160.095 130.77 H 0 **** 0.1268
51355 H 117.468 154.478 134.496 H 0 **** 0.053
51356 H 119.176 154.453 134.956 H 0 **** 0.053
51357 H 117.172 156.649 135.678 H 0 **** 0.053
51358 H 118.808 157.778 136.766 H 0 **** 0.053
51359 H 120.965 156.201 135.342 H 0 **** 0.053
51360 H 120.821 157.943 135.597 H 0 **** 0.053
51361 H 113.561 156.481 126.96 H 0 **** 0.053
51362 H 114.433 155.109 126.252 H 0 **** 0.053
51363 H 111.998 154.657 126.39 H 0 **** 0.053
51364 H 111.965 155.008 128.12 H 0 **** 0.053
51365 H 110.21 152.712 126.851 H 0 **** 0.053
51366 H 111.292 153.013 125.48 H 0 **** 0.053
51367 H 111.277 150.712 124.785 H 0 **** 0.053
51368 H 109.592 151.164 125.092 H 0 **** 0.053
51369 H 110.039 148.949 126.134 H 0 **** 0.053
51370 H 109.807 150.146 127.424 H 0 **** 0.053
51371 H 112.473 149.091 126.313 H 0 **** 0.053
51372 H 111.117 148.873 129.083 H 0 **** 0.053
51373 H 111.357 147.566 127.897 H 0 **** 0.053
51374 H 116.06 149.966 129.66 H 0 **** 0.1268
51375 H 116.65 147.738 130.52 H 0 **** 0.1268
51376 H 115.073 164.886 127.256 H 0 **** 0.053
51377 H 115.415 166.581 127.361 H 0 **** 0.053
51378 H 114.203 166.711 129.605 H 0 **** 0.053
51379 H 113.818 164.976 129.471 H 0 **** 0.053
51380 H 113.145 166.131 128.295 H 0 **** 0.053
51381 H 117.493 168.566 129.502 H 0 **** 0.053
51382 H 115.969 168.039 128.828 H 0 **** 0.053
51383 H 117.391 168.093 127.777 H 0 **** 0.053
51384 H 115.46 162.485 129.865 H 0 **** 0.053
51385 H 116.357 162.132 128.359 H 0 **** 0.053
51386 H 114.956 163.202 128.342 H 0 **** 0.053
51387 H 120.594 166.863 130.248 H 0 **** 0.053
51388 H 119.292 167.758 131.071 H 0 **** 0.053
51389 H 119.611 167.974 129.331 H 0 **** 0.053
51390 H 123.373 163.587 132.891 H 0 **** 0.053
51391 H 122.058 164.585 133.59 H 0 **** 0.053
51392 H 122.465 164.663 131.85 H 0 **** 0.053
51393 H 122.182 160.927 135.021 H 0 **** 0.053
51394 H 122.885 162.464 134.58 H 0 **** 0.053
51395 H 123.473 160.975 133.771 H 0 **** 0.053
51396 H 121.911 157.945 133.912 H 0 **** 0.41
51397 H 119.338 156.101 138.515 H 0 **** 0.053
51398 H 120.841 156.797 137.876 H 0 **** 0.053
51399 H 120.337 155.168 137.357 H 0 **** 0.053
51400 H 116.515 154.494 136.673 H 0 **** 0.053
51401 H 117.136 155.565 137.95 H 0 **** 0.053
51402 H 118.152 154.228 137.318 H 0 **** 0.053
51403 H 116.86 153.204 132.032 H 0 **** 0.41
51404 H 116.334 158.533 129 H 0 **** 0.41
51405 H 111.53 146.22 129.761 H 0 **** 0.053
51406 H 112.813 145.035 129.984 H 0 **** 0.053
51407 H 112.366 145.526 128.339 H 0 **** 0.053
51408 H 114.546 145.203 131.415 H 0 **** 0.053
51409 H 116.223 145.524 130.953 H 0 **** 0.053
51410 H 115.15 144.699 129.814 H 0 **** 0.053
51411 C 118.253 153.933 163.528 C.2 0 **** 0
51412 C 117.872 155.25 163.323 C.2 0 **** 0
51413 C 118.224 155.897 162.149 C.2 0 **** 0
51414 C 118.932 155.214 161.192 C.2 0 **** 0
51415 C 119.27 153.878 161.368 C.2 0 **** 0
51416 C 118.92 153.235 162.537 C.2 0 **** 0
51417 C 119.349 155.901 159.907 C.3 0 **** -0.106
51418 C 119.128 157.4 159.779 C.2 0 **** 0
51419 C 118.439 158.087 160.738 C.2 0 **** 0
51420 C 117.832 157.353 161.93 C.3 0 **** -0.106
51421 C 118.307 159.474 160.628 C.2 0 **** 0
51422 C 118.877 160.169 159.577 C.2 0 **** 0
51423 C 119.474 159.455 158.543 C.2 0 **** 0
51424 C 119.63 158.069 158.649 C.2 0 **** 0
51425 C 120.296 157.367 157.656 C.2 0 **** -0.1268
51426 C 120.953 157.955 156.596 C.2 0 **** 0
51427 C 120.885 159.392 156.592 C.2 0 **** 0
51428 C 119.977 160.075 157.405 C.2 0 **** 0.042
51429 C 121.647 160.191 155.517 C.3 0 **** 0
51430 C 122.426 159.415 154.451 C.3 0 **** 0
51431 C 122.25 157.884 154.41 C.2 0 **** 0
51432 C 121.57 157.199 155.471 C.2 0 **** 0
51433 C 123.703 160.122 153.949 C.3 0 **** -0.106
51434 C 124.546 160.674 155.102 C.3 0 **** -0.053
51435 C 123.759 161.729 155.938 C.3 0 **** -0.053
51436 C 122.218 161.603 155.797 C.3 0 **** -0.106
51437 C 121.397 155.811 155.299 C.2 0 **** 0.042
51438 C 121.886 155.17 154.181 C.2 0 **** 0.052
51439 C 122.514 155.872 153.163 C.2 0 **** 0.052
51440 C 122.637 157.233 153.253 C.2 0 **** 0.042
51441 C 123.048 155.198 151.928 C.2 0 **** 0.367
51442 C 122.873 153.717 151.85 C.2 0 **** 0
51443 C 122.255 153.035 152.821 C.2 0 **** 0
51444 C 121.722 153.678 154.046 C.2 0 **** 0.367
51445 C 122.091 151.535 152.741 C.3 0 **** -0.106
51446 C 123.34 150.926 152.055 C.3 0 **** -0.106
51447 C 123.619 151.611 150.718 C.2 0 **** 0
51448 C 123.401 153.004 150.618 C.2 0 **** 0.2405
51449 N 123.648 153.687 149.479 N.2 0 **** -0.481
51450 C 124.2 153.03 148.464 C.2 0 **** 0.2405
51451 C 124.414 151.632 148.492 C.2 0 **** 0
51452 C 124.105 150.93 149.63 C.2 0 **** 0
51453 C 124.337 149.426 149.723 C.3 0 **** -0.106
51454 C 124.55 148.77 148.353 C.3 0 **** -0.106
51455 C 125.521 149.594 147.513 C.3 0 **** -0.106
51456 C 124.911 150.979 147.226 C.3 0 **** -0.053
51457 C 125.93 151.909 146.517 C.3 0 **** -0.106
51458 C 125.333 153.281 146.343 C.2 0 **** 0
51459 C 124.502 153.82 147.327 C.2 0 **** 0
51460 C 123.994 155.121 147.163 C.2 0 **** -0.1268
51461 C 124.347 155.857 146.049 C.2 0 **** -0.1268
51462 C 125.204 155.345 145.09 C.2 0 **** 0
51463 C 125.711 154.056 145.252 C.2 0 **** 0
51464 C 119.233 151.772 162.722 C.3 0 **** -0.106
51465 C 120.671 151.572 163.245 C.3 0 **** -0.159
51466 C 117.933 153.269 164.841 C.3 0 **** -0.159
51467 C 120.039 153.192 160.262 C.3 0 **** -0.159
51468 C 117.084 155.987 164.378 C.3 0 **** -0.159
51469 C 117.444 160.187 161.674 C.3 0 **** -0.159
51470 C 118.767 161.675 159.611 C.3 0 **** -0.159
51471 O 119.677 161.373 157.112 O.3 0 **** -0.452
51472 C 124.081 163.177 155.564 C.3 0 **** -0.159
51473 C 125.858 161.206 154.512 C.3 0 **** -0.159
51474 O 123.146 158.002 152.242 O.3 0 **** -0.452
51475 O 120.731 155.083 156.231 O.3 0 **** -0.452
51476 O 121.175 153.038 154.885 O.2 0 **** -0.419
51477 O 123.62 155.823 151.083 O.2 0 **** -0.419
51478 C 126.687 153.506 144.225 C.3 0 **** -0.159
51479 C 125.57 156.224 143.911 C.3 0 **** -0.159
51480 H 120.443 155.723 159.782 H 0 **** 0.053
51481 H 118.844 155.388 159.051 H 0 **** 0.053
51482 H 116.721 157.403 161.852 H 0 **** 0.053
51483 H 118.105 157.921 162.847 H 0 **** 0.053
51484 H 120.317 156.31 157.797 H 0 **** 0.1268
51485 H 124.326 159.449 153.356 H 0 **** 0.053
51486 H 123.366 160.934 153.301 H 0 **** 0.053
51487 H 124.798 159.83 155.77 H 0 **** 0.053
51488 H 124.024 161.574 156.992 H 0 **** 0.053
51489 H 121.891 162.188 154.933 H 0 **** 0.053
51490 H 121.76 162.049 156.688 H 0 **** 0.053
51491 H 121.958 151.066 153.733 H 0 **** 0.053
51492 H 121.18 151.311 152.159 H 0 **** 0.053
51493 H 123.167 149.84 151.964 H 0 **** 0.053
51494 H 124.21 151.036 152.738 H 0 **** 0.053
51495 H 125.225 149.231 150.354 H 0 **** 0.053
51496 H 123.487 148.915 150.21 H 0 **** 0.053
51497 H 123.585 148.698 147.818 H 0 **** 0.053
51498 H 124.918 147.734 148.474 H 0 **** 0.053
51499 H 125.759 149.084 146.56 H 0 **** 0.053
51500 H 126.475 149.714 148.057 H 0 **** 0.053
51501 H 124.045 150.827 146.536 H 0 **** 0.053
51502 H 126.856 151.97 147.133 H 0 **** 0.053
51503 H 126.225 151.436 145.555 H 0 **** 0.053
51504 H 123.327 155.563 147.914 H 0 **** 0.1268
51505 H 123.95 156.878 145.929 H 0 **** 0.1268
51506 H 119.104 151.196 161.785 H 0 **** 0.053
51507 H 118.53 151.281 163.418 H 0 **** 0.053
51508 H 120.819 152.091 164.207 H 0 **** 0.053
51509 H 121.416 151.962 162.533 H 0 **** 0.053
51510 H 120.901 150.5 163.41 H 0 **** 0.053
51511 H 117.901 153.982 165.689 H 0 **** 0.053
51512 H 118.693 152.522 165.142 H 0 **** 0.053
51513 H 116.951 152.746 164.816 H 0 **** 0.053
51514 H 121.027 153.676 160.09 H 0 **** 0.053
51515 H 119.491 153.222 159.296 H 0 **** 0.053
51516 H 120.268 152.131 160.443 H 0 **** 0.053
51517 H 116.473 156.817 163.975 H 0 **** 0.053
51518 H 117.75 156.426 165.155 H 0 **** 0.053
51519 H 116.359 155.332 164.897 H 0 **** 0.053
51520 H 116.885 161.045 161.255 H 0 **** 0.053
51521 H 118.049 160.563 162.526 H 0 **** 0.053
51522 H 116.642 159.54 162.103 H 0 **** 0.053
51523 H 119.718 162.169 159.313 H 0 **** 0.053
51524 H 118.564 162.109 160.626 H 0 **** 0.053
51525 H 117.963 162.077 158.94 H 0 **** 0.053
51526 H 119.885 161.544 156.19 H 0 **** 0.41
51527 H 125.131 163.426 155.768 H 0 **** 0.053
51528 H 123.457 163.877 156.152 H 0 **** 0.053
51529 H 123.873 163.372 154.493 H 0 **** 0.053
51530 H 126.41 160.398 153.996 H 0 **** 0.053
51531 H 126.517 161.608 155.296 H 0 **** 0.053
51532 H 125.674 162.002 153.762 H 0 **** 0.053
51533 H 123.497 157.409 151.561 H 0 **** 0.41
51534 H 120.74 154.146 155.987 H 0 **** 0.41
51535 H 127.591 153.089 144.708 H 0 **** 0.053
51536 H 127.058 154.267 143.513 H 0 **** 0.053
51537 H 126.229 152.701 143.613 H 0 **** 0.053
51538 H 126.652 156.451 143.886 H 0 **** 0.053
51539 H 125.048 157.197 143.939 H 0 **** 0.053
51540 H 125.305 155.753 142.948 H 0 **** 0.053
51541 C 122.576 136.301 189.461 C.2 0 **** 0
51542 C 123.595 136.442 190.389 C.2 0 **** 0
51543 C 124.597 135.487 190.469 C.2 0 **** 0
51544 C 124.572 134.416 189.61 C.2 0 **** 0
51545 C 123.584 134.298 188.64 C.2 0 **** 0
51546 C 122.589 135.25 188.561 C.2 0 **** 0
51547 C 125.64 133.344 189.688 C.3 0 **** -0.106
51548 C 126.638 133.388 190.837 C.2 0 **** 0
51549 C 126.668 134.45 191.697 C.2 0 **** 0
51550 C 125.712 135.625 191.502 C.3 0 **** -0.106
51551 C 127.577 134.451 192.759 C.2 0 **** 0
51552 C 128.395 133.365 193.002 C.2 0 **** 0
51553 C 128.436 132.333 192.072 C.2 0 **** 0
51554 C 127.545 132.325 190.992 C.2 0 **** 0
51555 C 127.546 131.267 190.095 C.2 0 **** -0.1268
51556 C 128.288 130.115 190.253 C.2 0 **** 0
51557 C 129.082 130.094 191.453 C.2 0 **** 0
51558 C 129.314 131.259 192.189 C.2 0 **** 0.042
51559 C 129.897 128.833 191.805 C.3 0 **** 0
51560 C 129.868 127.653 190.83 C.3 0 **** 0
51561 C 129.172 127.864 189.471 C.2 0 **** 0
51562 C 128.388 129.039 189.228 C.2 0 **** 0
51563 C 129.99 126.268 191.5 C.3 0 **** -0.106
51564 C 129.068 126.137 192.716 C.3 0 **** -0.053
51565 C 129.41 127.189 193.814 C.3 0 **** -0.053
51566 C 130.175 128.424 193.271 C.3 0 **** -0.106
51567 C 127.861 129.172 187.927 C.2 0 **** 0.042
51568 C 128.076 128.2 186.973 C.2 0 **** 0.052
51569 C 128.863 127.09 187.239 C.2 0 **** 0.052
51570 C 129.46 126.959 188.465 C.2 0 **** 0.042
51571 C 129.125 126.02 186.212 C.2 0 **** 0.367
51572 C 128.485 126.209 184.877 C.2 0 **** 0
51573 C 127.736 127.286 184.608 C.2 0 **** 0
51574 C 127.465 128.351 185.603 C.2 0 **** 0.367
51575 C 127.082 127.465 183.257 C.3 0 **** -0.106
51576 C 126.65 126.079 182.718 C.3 0 **** -0.106
51577 C 127.82 125.095 182.735 C.2 0 **** 0
51578 C 128.728 125.15 183.817 C.2 0 **** 0.2405
51579 N 129.773 124.3 183.918 N.2 0 **** -0.481
51580 C 129.879 123.331 183.014 C.2 0 **** 0.2405
51581 C 129.021 123.242 181.893 C.2 0 **** 0
51582 C 127.997 124.145 181.76 C.2 0 **** 0
51583 C 127.029 124.082 180.585 C.3 0 **** -0.106
51584 C 127.547 123.211 179.434 C.3 0 **** -0.106
51585 C 128.111 121.899 179.969 C.3 0 **** -0.106
51586 C 129.333 122.186 180.862 C.3 0 **** -0.053
51587 C 129.837 120.897 181.562 C.3 0 **** -0.106
51588 C 130.967 121.234 182.498 C.2 0 **** 0
51589 C 130.954 122.429 183.219 C.2 0 **** 0
51590 C 131.996 122.7 184.124 C.2 0 **** -0.1268
51591 C 133.001 121.77 184.307 C.2 0 **** -0.1268
51592 C 132.999 120.565 183.627 C.2 0 **** 0
51593 C 131.964 120.293 182.732 C.2 0 **** 0
51594 C 121.54 135.165 187.482 C.3 0 **** -0.106
51595 C 120.382 134.237 187.906 C.3 0 **** -0.159
51596 C 121.454 137.306 189.439 C.3 0 **** -0.159
51597 C 123.636 133.1 187.72 C.3 0 **** -0.159
51598 C 123.615 137.628 191.322 C.3 0 **** -0.159
51599 C 127.595 135.677 193.672 C.3 0 **** -0.159
51600 C 129.189 133.376 194.286 C.3 0 **** -0.159
51601 O 130.354 131.286 193.075 O.3 0 **** -0.452
51602 C 130.286 126.638 194.939 C.3 0 **** -0.159
51603 C 129.14 124.686 193.206 C.3 0 **** -0.159
51604 O 130.339 125.953 188.76 O.3 0 **** -0.452
51605 O 127.144 130.272 187.588 O.3 0 **** -0.452
51606 O 126.796 129.293 185.326 O.2 0 **** -0.419
51607 O 129.779 125.054 186.481 O.2 0 **** -0.419
51608 C 131.932 118.953 182.017 C.3 0 **** -0.159
51609 C 134.118 119.581 183.905 C.3 0 **** -0.159
51610 H 125.116 132.362 189.742 H 0 **** 0.053
51611 H 126.21 133.347 188.727 H 0 **** 0.053
51612 H 126.314 136.527 191.238 H 0 **** 0.053
51613 H 125.238 135.84 192.485 H 0 **** 0.053
51614 H 126.877 131.383 189.272 H 0 **** 0.1268
51615 H 129.757 125.464 190.799 H 0 **** 0.053
51616 H 131.034 126.167 191.802 H 0 **** 0.053
51617 H 128.033 126.325 192.376 H 0 **** 0.053
51618 H 128.461 127.531 194.247 H 0 **** 0.053
51619 H 131.247 128.212 193.279 H 0 **** 0.053
51620 H 130 129.261 193.959 H 0 **** 0.053
51621 H 126.2 128.13 183.295 H 0 **** 0.053
51622 H 127.808 127.94 182.574 H 0 **** 0.053
51623 H 126.224 126.236 181.712 H 0 **** 0.053
51624 H 125.813 125.699 183.343 H 0 **** 0.053
51625 H 126.059 123.675 180.932 H 0 **** 0.053
51626 H 126.821 125.087 180.177 H 0 **** 0.053
51627 H 128.345 123.748 178.887 H 0 **** 0.053
51628 H 126.741 123.021 178.7 H 0 **** 0.053
51629 H 128.399 121.22 179.144 H 0 **** 0.053
51630 H 127.337 121.374 180.559 H 0 **** 0.053
51631 H 130.151 122.56 180.199 H 0 **** 0.053
51632 H 128.995 120.438 182.127 H 0 **** 0.053
51633 H 130.124 120.162 180.777 H 0 **** 0.053
51634 H 132.016 123.637 184.694 H 0 **** 0.1268
51635 H 133.81 121.986 185.022 H 0 **** 0.1268
51636 H 121.957 134.809 186.52 H 0 **** 0.053
51637 H 121.125 136.156 187.225 H 0 **** 0.053
51638 H 119.907 134.594 188.835 H 0 **** 0.053
51639 H 120.734 133.207 188.079 H 0 **** 0.053
51640 H 119.591 134.189 187.13 H 0 **** 0.053
51641 H 121.248 137.744 190.436 H 0 **** 0.053
51642 H 120.487 136.864 189.131 H 0 **** 0.053
51643 H 121.664 138.151 188.747 H 0 **** 0.053
51644 H 123.542 132.146 188.287 H 0 **** 0.053
51645 H 124.593 133.05 187.158 H 0 **** 0.053
51646 H 122.841 133.061 186.96 H 0 **** 0.053
51647 H 124.628 137.886 191.689 H 0 **** 0.053
51648 H 122.984 137.453 192.221 H 0 **** 0.053
51649 H 123.25 138.553 190.837 H 0 **** 0.053
51650 H 128.599 135.885 194.083 H 0 **** 0.053
51651 H 126.894 135.567 194.531 H 0 **** 0.053
51652 H 127.316 136.621 193.15 H 0 **** 0.053
51653 H 129.188 132.382 194.787 H 0 **** 0.053
51654 H 128.785 134.055 195.085 H 0 **** 0.053
51655 H 130.261 133.673 194.142 H 0 **** 0.053
51656 H 130.989 130.603 192.842 H 0 **** 0.41
51657 H 129.773 125.843 195.492 H 0 **** 0.053
51658 H 130.534 127.439 195.659 H 0 **** 0.053
51659 H 131.242 126.237 194.549 H 0 **** 0.053
51660 H 128.815 123.989 192.41 H 0 **** 0.053
51661 H 128.486 124.523 194.076 H 0 **** 0.053
51662 H 130.175 124.4 193.482 H 0 **** 0.053
51663 H 130.336 125.322 188.025 H 0 **** 0.41
51664 H 126.812 130.186 186.681 H 0 **** 0.41
51665 H 130.942 118.468 182.109 H 0 **** 0.053
51666 H 132.658 118.219 182.416 H 0 **** 0.053
51667 H 132.156 119.059 180.935 H 0 **** 0.053
51668 H 133.739 118.641 184.346 H 0 **** 0.053
51669 H 134.858 119.984 184.617 H 0 **** 0.053
51670 H 134.673 119.321 182.987 H 0 **** 0.053
51671 C 137.242 186.36 100.693 C.2 0 **** 0
51672 C 136.995 185.009 100.501 C.2 0 **** 0
51673 C 138.051 184.131 100.319 C.2 0 **** 0
51674 C 139.336 184.613 100.347 C.2 0 **** 0
51675 C 139.593 185.956 100.594 C.2 0 **** 0
51676 C 138.541 186.828 100.777 C.2 0 **** 0
51677 C 140.511 183.68 100.129 C.3 0 **** -0.106
51678 C 140.235 182.242 99.7138 C.2 0 **** 0
51679 C 138.958 181.755 99.6833 C.2 0 **** 0
51680 C 137.786 182.646 100.089 C.3 0 **** -0.106
51681 C 138.732 180.437 99.2729 C.2 0 **** 0
51682 C 139.767 179.64 98.8264 C.2 0 **** 0
51683 C 141.073 180.098 98.954 C.2 0 **** 0
51684 C 141.317 181.41 99.3796 C.2 0 **** 0
51685 C 142.617 181.887 99.4525 C.2 0 **** -0.1268
51686 C 143.725 181.2 99.0009 C.2 0 **** 0
51687 C 143.419 179.913 98.4316 C.2 0 **** 0
51688 C 142.174 179.31 98.6309 C.2 0 **** 0.042
51689 C 144.548 179.07 97.8069 C.3 0 **** 0
51690 C 145.977 179.616 97.8571 C.3 0 **** 0
51691 C 146.228 180.891 98.6862 C.2 0 **** 0
51692 C 145.129 181.657 99.1969 C.2 0 **** 0
51693 C 146.856 179.218 96.6521 C.3 0 **** -0.106
51694 C 146.124 179.414 95.3204 C.3 0 **** -0.053
51695 C 144.837 178.538 95.2344 C.3 0 **** -0.053
51696 C 144.288 178.11 96.6208 C.3 0 **** -0.106
51697 C 145.468 182.758 100.008 C.2 0 **** 0.042
51698 C 146.786 183.076 100.256 C.2 0 **** 0.052
51699 C 147.822 182.295 99.7666 C.2 0 **** 0.052
51700 C 147.536 181.17 99.0383 C.2 0 **** 0.042
51701 C 149.27 182.612 100.032 C.2 0 **** 0.367
51702 C 149.544 183.827 100.855 C.2 0 **** 0
51703 C 148.55 184.578 101.344 C.2 0 **** 0
51704 C 147.118 184.285 101.094 C.2 0 **** 0.367
51705 C 148.835 185.813 102.167 C.3 0 **** -0.106
51706 C 150.114 186.498 101.622 C.3 0 **** -0.106
51707 C 151.273 185.504 101.538 C.2 0 **** 0
51708 C 150.993 184.177 101.142 C.2 0 **** 0.2405
51709 N 151.964 183.247 101.018 N.2 0 **** -0.481
51710 C 153.224 183.634 101.187 C.2 0 **** 0.2405
51711 C 153.567 184.939 101.613 C.2 0 **** 0
51712 C 152.572 185.866 101.797 C.2 0 **** 0
51713 C 152.885 187.292 102.232 C.3 0 **** -0.106
51714 C 154.301 187.444 102.8 C.3 0 **** -0.106
51715 C 155.312 186.728 101.912 C.3 0 **** -0.106
51716 C 155.019 185.215 101.91 C.3 0 **** -0.053
51717 C 155.918 184.467 100.89 C.3 0 **** -0.106
51718 C 155.536 183.012 100.845 C.2 0 **** 0
51719 C 154.199 182.628 100.971 C.2 0 **** 0
51720 C 153.862 181.266 100.879 C.2 0 **** -0.1268
51721 C 154.85 180.332 100.636 C.2 0 **** -0.1268
51722 C 156.171 180.709 100.467 C.2 0 **** 0
51723 C 156.507 182.059 100.555 C.2 0 **** 0
51724 C 138.803 188.278 101.097 C.3 0 **** -0.106
51725 C 139.035 189.097 99.8103 C.3 0 **** -0.159
51726 C 136.081 187.313 100.813 C.3 0 **** -0.159
51727 C 141.036 186.405 100.626 C.3 0 **** -0.159
51728 C 135.577 184.492 100.483 C.3 0 **** -0.159
51729 C 137.29 179.93 99.2896 C.3 0 **** -0.159
51730 C 139.396 178.31 98.2136 C.3 0 **** -0.159
51731 O 142.048 177.966 98.4203 O.3 0 **** -0.452
51732 C 145.03 177.234 94.4572 C.3 0 **** -0.159
51733 C 147.129 179.151 94.1921 C.3 0 **** -0.159
51734 O 148.499 180.291 98.6204 O.3 0 **** -0.452
51735 O 144.496 183.518 100.572 O.3 0 **** -0.452
51736 O 146.263 184.976 101.546 O.2 0 **** -0.419
51737 O 150.143 181.941 99.5635 O.2 0 **** -0.419
51738 C 157.949 182.484 100.327 C.3 0 **** -0.159
51739 C 157.194 179.63 100.173 C.3 0 **** -0.159
51740 H 141.148 184.136 99.3366 H 0 **** 0.053
51741 H 141.125 183.665 101.063 H 0 **** 0.053
51742 H 137.335 182.229 101.022 H 0 **** 0.053
51743 H 137.007 182.56 99.2991 H 0 **** 0.053
51744 H 142.706 182.873 99.8496 H 0 **** 0.1268
51745 H 147.783 179.793 96.6268 H 0 **** 0.053
51746 H 147.11 178.165 96.7952 H 0 **** 0.053
51747 H 145.82 180.474 95.2566 H 0 **** 0.053
51748 H 144.069 179.136 94.7273 H 0 **** 0.053
51749 H 144.78 177.183 96.9282 H 0 **** 0.053
51750 H 143.219 177.893 96.5105 H 0 **** 0.053
51751 H 148.002 186.538 102.151 H 0 **** 0.053
51752 H 148.973 185.511 103.22 H 0 **** 0.053
51753 H 150.325 187.364 102.273 H 0 **** 0.053
51754 H 149.891 186.922 100.62 H 0 **** 0.053
51755 H 152.774 187.972 101.364 H 0 **** 0.053
51756 H 152.175 187.646 103.001 H 0 **** 0.053
51757 H 154.344 187.009 103.817 H 0 **** 0.053
51758 H 154.562 188.514 102.908 H 0 **** 0.053
51759 H 156.348 186.909 102.256 H 0 **** 0.053
51760 H 155.246 187.119 100.881 H 0 **** 0.053
51761 H 155.259 184.826 102.929 H 0 **** 0.053
51762 H 155.788 184.928 99.8845 H 0 **** 0.053
51763 H 156.981 184.631 101.174 H 0 **** 0.053
51764 H 152.821 180.936 100.99 H 0 **** 0.1268
51765 H 154.578 179.267 100.56 H 0 **** 0.1268
51766 H 139.672 188.406 101.772 H 0 **** 0.053
51767 H 137.974 188.736 101.665 H 0 **** 0.053
51768 H 138.165 189.034 99.137 H 0 **** 0.053
51769 H 139.918 188.736 99.257 H 0 **** 0.053
51770 H 139.203 190.17 100.033 H 0 **** 0.053
51771 H 135.191 186.981 100.244 H 0 **** 0.053
51772 H 136.307 188.317 100.406 H 0 **** 0.053
51773 H 135.762 187.451 101.87 H 0 **** 0.053
51774 H 141.54 186.232 99.6488 H 0 **** 0.053
51775 H 141.623 185.857 101.395 H 0 **** 0.053
51776 H 141.187 187.473 100.842 H 0 **** 0.053
51777 H 135.492 183.424 100.764 H 0 **** 0.053
51778 H 135.116 184.595 99.4751 H 0 **** 0.053
51779 H 134.924 185.023 101.201 H 0 **** 0.053
51780 H 137.223 178.85 99.5073 H 0 **** 0.053
51781 H 136.774 180.113 98.3191 H 0 **** 0.053
51782 H 136.664 180.404 100.08 H 0 **** 0.053
51783 H 139.99 178.091 97.2992 H 0 **** 0.053
51784 H 138.337 178.242 97.8418 H 0 **** 0.053
51785 H 139.534 177.445 98.9141 H 0 **** 0.053
51786 H 142.916 177.554 98.4574 H 0 **** 0.41
51787 H 145.278 177.422 93.404 H 0 **** 0.053
51788 H 144.1 176.634 94.4735 H 0 **** 0.053
51789 H 145.83 176.613 94.9047 H 0 **** 0.053
51790 H 147.984 179.85 94.2593 H 0 **** 0.053
51791 H 146.666 179.288 93.2033 H 0 **** 0.053
51792 H 147.545 178.125 94.2486 H 0 **** 0.053
51793 H 149.366 180.679 98.8104 H 0 **** 0.41
51794 H 144.892 184.256 101.06 H 0 **** 0.41
51795 H 158.017 183.31 99.5944 H 0 **** 0.053
51796 H 158.59 181.677 99.9231 H 0 **** 0.053
51797 H 158.43 182.825 101.267 H 0 **** 0.053
51798 H 157.66 179.765 99.1794 H 0 **** 0.053
51799 H 156.746 178.621 100.173 H 0 **** 0.053
51800 H 158.003 179.614 100.924 H 0 **** 0.053
51801 C 104.989 141.054 155.205 C.2 0 **** 0
51802 C 104.437 141.266 153.951 C.2 0 **** 0
51803 C 103.863 142.49 153.646 C.2 0 **** 0
51804 C 103.861 143.485 154.591 C.2 0 **** 0
51805 C 104.462 143.298 155.83 C.2 0 **** 0
51806 C 105.036 142.08 156.132 C.2 0 **** 0
51807 C 103.22 144.826 154.295 C.3 0 **** -0.106
51808 C 102.434 144.99 153.001 C.2 0 **** 0
51809 C 102.429 144.003 152.055 C.2 0 **** 0
51810 C 103.235 142.725 152.274 C.3 0 **** -0.106
51811 C 101.676 144.17 150.889 C.2 0 **** 0
51812 C 100.877 145.282 150.706 C.2 0 **** 0
51813 C 100.962 146.328 151.618 C.2 0 **** 0
51814 C 101.725 146.184 152.782 C.2 0 **** 0
51815 C 101.764 147.205 153.72 C.2 0 **** -0.1268
51816 C 100.985 148.342 153.665 C.2 0 **** 0
51817 C 100.102 148.387 152.529 C.2 0 **** 0
51818 C 100.273 147.525 151.443 C.2 0 **** 0.042
51819 C 99.1087 149.557 152.383 C.3 0 **** 0
51820 C 99.1305 150.666 153.439 C.3 0 **** 0
51821 C 100.262 150.636 154.485 C.2 0 **** 0
51822 C 101.12 149.493 154.6 C.2 0 **** 0
51823 C 97.7562 151.312 153.714 C.3 0 **** -0.106
51824 C 96.6535 150.263 153.885 C.3 0 **** -0.053
51825 C 96.4807 149.392 152.603 C.3 0 **** -0.053
51826 C 97.7355 149.381 151.691 C.3 0 **** -0.106
51827 C 102.172 149.602 155.532 C.2 0 **** 0.042
51828 C 102.326 150.738 156.297 C.2 0 **** 0.052
51829 C 101.492 151.834 156.138 C.2 0 **** 0.052
51830 C 100.505 151.803 155.188 C.2 0 **** 0.042
51831 C 101.645 153.092 156.951 C.2 0 **** 0.367
51832 C 102.75 153.103 157.955 C.2 0 **** 0
51833 C 103.569 152.055 158.104 C.2 0 **** 0
51834 C 103.436 150.807 157.315 C.2 0 **** 0.367
51835 C 104.679 152.07 159.131 C.3 0 **** -0.106
51836 C 104.199 152.85 160.38 C.3 0 **** -0.106
51837 C 103.668 154.231 159.994 C.2 0 **** 0
51838 C 102.934 154.356 158.793 C.2 0 **** 0.2405
51839 N 102.409 155.535 158.394 N.2 0 **** -0.481
51840 C 102.518 156.576 159.214 C.2 0 **** 0.2405
51841 C 103.265 156.521 160.414 C.2 0 **** 0
51842 C 103.848 155.336 160.787 C.2 0 **** 0
51843 C 104.645 155.215 162.08 C.3 0 **** -0.106
51844 C 105.039 156.576 162.667 C.3 0 **** -0.106
51845 C 103.851 157.532 162.644 C.3 0 **** -0.106
51846 C 103.435 157.806 161.186 C.3 0 **** -0.053
51847 C 102.129 158.64 161.119 C.3 0 **** -0.106
51848 C 101.701 158.803 159.684 C.2 0 **** 0
51849 C 101.883 157.763 158.77 C.2 0 **** 0
51850 C 101.433 157.921 157.447 C.2 0 **** -0.1268
51851 C 100.793 159.089 157.079 C.2 0 **** -0.1268
51852 C 100.571 160.107 157.989 C.2 0 **** 0
51853 C 101.014 159.95 159.303 C.2 0 **** 0
51854 C 105.737 141.876 157.451 C.3 0 **** -0.106
51855 C 104.736 141.485 158.558 C.3 0 **** -0.159
51856 C 105.541 139.695 155.548 C.3 0 **** -0.159
51857 C 104.435 144.448 156.811 C.3 0 **** -0.159
51858 C 104.453 140.166 152.918 C.3 0 **** -0.159
51859 C 101.732 143.053 149.847 C.3 0 **** -0.159
51860 C 99.9491 145.273 149.514 C.3 0 **** -0.159
51861 O 99.6852 147.838 150.25 O.3 0 **** -0.452
51862 C 95.3309 149.844 151.701 C.3 0 **** -0.159
51863 C 95.3755 150.993 154.314 C.3 0 **** -0.159
51864 O 99.7185 152.885 154.898 O.3 0 **** -0.452
51865 O 103.061 148.588 155.681 O.3 0 **** -0.452
51866 O 104.183 149.897 157.476 O.2 0 **** -0.419
51867 O 100.886 154.008 156.818 O.2 0 **** -0.419
51868 C 100.734 161.046 160.318 C.3 0 **** -0.159
51869 C 99.8341 161.345 157.518 C.3 0 **** -0.159
51870 H 102.523 145.049 155.136 H 0 **** 0.053
51871 H 104.016 145.61 154.325 H 0 **** 0.053
51872 H 104.052 142.69 151.513 H 0 **** 0.053
51873 H 102.566 141.863 152.056 H 0 **** 0.053
51874 H 102.423 147.029 154.541 H 0 **** 0.1268
51875 H 97.7813 151.938 154.607 H 0 **** 0.053
51876 H 97.5431 151.951 152.854 H 0 **** 0.053
51877 H 96.9511 149.594 154.713 H 0 **** 0.053
51878 H 96.2829 148.363 152.931 H 0 **** 0.053
51879 H 97.6838 150.23 151.004 H 0 **** 0.053
51880 H 97.708 148.467 151.086 H 0 **** 0.053
51881 H 104.991 151.055 159.436 H 0 **** 0.053
51882 H 105.565 152.555 158.685 H 0 **** 0.053
51883 H 105.046 152.888 161.088 H 0 **** 0.053
51884 H 103.409 152.257 160.888 H 0 **** 0.053
51885 H 104.044 154.665 162.83 H 0 **** 0.053
51886 H 105.572 154.632 161.932 H 0 **** 0.053
51887 H 105.864 157.013 162.074 H 0 **** 0.053
51888 H 105.427 156.455 163.696 H 0 **** 0.053
51889 H 104.094 158.485 163.151 H 0 **** 0.053
51890 H 103.003 157.085 163.194 H 0 **** 0.053
51891 H 104.251 158.405 160.712 H 0 **** 0.053
51892 H 101.334 158.116 161.698 H 0 **** 0.053
51893 H 102.305 159.609 161.635 H 0 **** 0.053
51894 H 101.577 157.126 156.705 H 0 **** 0.1268
51895 H 100.439 159.204 156.041 H 0 **** 0.1268
51896 H 106.297 142.777 157.77 H 0 **** 0.053
51897 H 106.521 141.1 157.391 H 0 **** 0.053
51898 H 104.196 140.56 158.296 H 0 **** 0.053
51899 H 103.988 142.278 158.722 H 0 **** 0.053
51900 H 105.245 141.308 159.526 H 0 **** 0.053
51901 H 105.022 138.873 155.017 H 0 **** 0.053
51902 H 105.427 139.443 156.619 H 0 **** 0.053
51903 H 106.623 139.61 155.304 H 0 **** 0.053
51904 H 103.393 144.73 157.081 H 0 **** 0.053
51905 H 104.92 145.357 156.395 H 0 **** 0.053
51906 H 104.938 144.255 157.77 H 0 **** 0.053
51907 H 104.41 140.538 151.876 H 0 **** 0.053
51908 H 103.593 139.472 153.046 H 0 **** 0.053
51909 H 105.377 139.559 152.961 H 0 **** 0.053
51910 H 101.623 143.43 148.814 H 0 **** 0.053
51911 H 100.938 142.29 150.013 H 0 **** 0.053
51912 H 102.704 142.509 149.834 H 0 **** 0.053
51913 H 98.9402 145.668 149.766 H 0 **** 0.053
51914 H 99.7184 144.252 149.104 H 0 **** 0.053
51915 H 100.334 145.874 148.649 H 0 **** 0.053
51916 H 99.4928 148.779 150.225 H 0 **** 0.41
51917 H 94.3588 149.749 152.203 H 0 **** 0.053
51918 H 95.2904 149.223 150.786 H 0 **** 0.053
51919 H 95.4619 150.896 151.378 H 0 **** 0.053
51920 H 95.535 151.532 155.267 H 0 **** 0.053
51921 H 94.5437 150.289 154.467 H 0 **** 0.053
51922 H 95.067 151.748 153.564 H 0 **** 0.053
51923 H 99.9011 153.576 155.552 H 0 **** 0.41
51924 H 103.689 148.799 156.388 H 0 **** 0.41
51925 H 100.28 160.637 161.24 H 0 **** 0.053
51926 H 100.026 161.815 159.957 H 0 **** 0.053
51927 H 101.66 161.584 160.607 H 0 **** 0.053
51928 H 98.874 161.479 158.049 H 0 **** 0.053
51929 H 99.5914 161.3 156.442 H 0 **** 0.053
51930 H 100.432 162.261 157.668 H 0 **** 0.053
51931 C 109.291 157.304 168.461 C.2 0 **** 0
51932 C 109.476 155.93 168.481 C.2 0 **** 0
51933 C 110.059 155.294 167.396 C.2 0 **** 0
51934 C 110.461 156.042 166.317 C.2 0 **** 0
51935 C 110.33 157.425 166.314 C.2 0 **** 0
51936 C 109.751 158.057 167.395 C.2 0 **** 0
51937 C 111.082 155.372 165.107 C.3 0 **** -0.106
51938 C 111.096 153.851 165.04 C.2 0 **** 0
51939 C 110.695 153.1 166.11 C.2 0 **** 0
51940 C 110.248 153.78 167.402 C.3 0 **** -0.106
51941 C 110.693 151.705 166.01 C.2 0 **** 0
51942 C 111.016 151.072 164.826 C.2 0 **** 0
51943 C 111.52 151.829 163.775 C.2 0 **** 0
51944 C 111.546 153.226 163.864 C.2 0 **** 0
51945 C 111.995 153.984 162.794 C.2 0 **** -0.1268
51946 C 112.309 153.469 161.553 C.2 0 **** 0
51947 C 112.126 152.044 161.452 C.2 0 **** 0
51948 C 111.97 151.251 162.591 C.2 0 **** 0.042
51949 C 112.355 151.343 160.098 C.3 0 **** 0
51950 C 112.816 152.188 158.909 C.3 0 **** 0
51951 C 113.199 153.656 159.18 C.2 0 **** 0
51952 C 112.914 154.261 160.449 C.2 0 **** 0
51953 C 112.302 151.699 157.539 C.3 0 **** -0.106
51954 C 110.805 151.373 157.572 C.3 0 **** -0.053
51955 C 110.483 150.24 158.593 C.3 0 **** -0.053
51956 C 111.565 150.075 159.693 C.3 0 **** -0.106
51957 C 113.376 155.581 160.621 C.2 0 **** 0.042
51958 C 114.033 156.239 159.603 C.2 0 **** 0.052
51959 C 114.319 155.608 158.4 C.2 0 **** 0.052
51960 C 113.954 154.301 158.218 C.2 0 **** 0.042
51961 C 115.045 156.298 157.275 C.2 0 **** 0.367
51962 C 115.432 157.72 157.512 C.2 0 **** 0
51963 C 115.159 158.33 158.669 C.2 0 **** 0
51964 C 114.464 157.67 159.794 C.2 0 **** 0.367
51965 C 115.511 159.774 158.88 C.3 0 **** -0.106
51966 C 115.402 160.561 157.567 C.3 0 **** -0.106
51967 C 116.175 159.86 156.444 C.2 0 **** 0
51968 C 116.175 158.447 156.405 C.2 0 **** 0.2405
51969 N 116.796 157.759 155.421 N.2 0 **** -0.481
51970 C 117.344 158.449 154.426 C.2 0 **** 0.2405
51971 C 117.409 159.862 154.428 C.2 0 **** 0
51972 C 116.83 160.558 155.459 C.2 0 **** 0
51973 C 116.854 162.081 155.501 C.3 0 **** -0.106
51974 C 117.875 162.692 154.533 C.3 0 **** -0.106
51975 C 117.794 162.011 153.172 C.3 0 **** -0.106
51976 C 118.176 160.524 153.311 C.3 0 **** -0.053
51977 C 117.942 159.757 151.982 C.3 0 **** -0.106
51978 C 118.233 158.293 152.183 C.2 0 **** 0
51979 C 117.908 157.667 153.387 C.2 0 **** 0
51980 C 118.142 156.287 153.532 C.2 0 **** -0.1268
51981 C 118.662 155.567 152.474 C.2 0 **** -0.1268
51982 C 118.95 156.173 151.264 C.2 0 **** 0
51983 C 118.714 157.54 151.116 C.2 0 **** 0
51984 C 109.647 159.56 167.43 C.3 0 **** -0.106
51985 C 108.386 160.048 166.687 C.3 0 **** -0.159
51986 C 108.586 157.97 169.614 C.3 0 **** -0.159
51987 C 110.814 158.178 165.096 C.3 0 **** -0.159
51988 C 109.036 155.122 169.677 C.3 0 **** -0.159
51989 C 110.27 150.91 167.246 C.3 0 **** -0.159
51990 C 110.786 149.581 164.759 C.3 0 **** -0.159
51991 O 112.183 149.905 162.493 O.3 0 **** -0.452
51992 C 110.343 148.856 157.955 C.3 0 **** -0.159
51993 C 110.363 151.058 156.138 C.3 0 **** -0.159
51994 O 114.294 153.585 157.103 O.3 0 **** -0.452
51995 O 113.186 156.226 161.799 O.3 0 **** -0.452
51996 O 114.258 158.244 160.816 O.2 0 **** -0.419
51997 O 115.245 155.739 156.235 O.2 0 **** -0.419
51998 C 118.982 158.202 149.775 C.3 0 **** -0.159
51999 C 119.489 155.313 150.139 C.3 0 **** -0.159
52000 H 110.53 155.738 164.211 H 0 **** 0.053
52001 H 112.133 155.738 165.004 H 0 **** 0.053
52002 H 110.985 153.529 168.203 H 0 **** 0.053
52003 H 109.283 153.319 167.709 H 0 **** 0.053
52004 H 112.04 155.033 162.981 H 0 **** 0.1268
52005 H 112.479 152.44 156.757 H 0 **** 0.053
52006 H 112.881 150.804 157.299 H 0 **** 0.053
52007 H 110.27 152.284 157.895 H 0 **** 0.053
52008 H 109.533 150.498 159.079 H 0 **** 0.053
52009 H 112.341 149.395 159.33 H 0 **** 0.053
52010 H 111.095 149.602 160.564 H 0 **** 0.053
52011 H 114.941 160.263 159.681 H 0 **** 0.053
52012 H 116.554 159.795 159.184 H 0 **** 0.053
52013 H 115.777 161.581 157.775 H 0 **** 0.053
52014 H 114.332 160.67 157.304 H 0 **** 0.053
52015 H 115.848 162.468 155.247 H 0 **** 0.053
52016 H 117.085 162.453 156.516 H 0 **** 0.053
52017 H 118.898 162.568 154.929 H 0 **** 0.053
52018 H 117.714 163.782 154.439 H 0 **** 0.053
52019 H 118.459 162.503 152.437 H 0 **** 0.053
52020 H 116.765 162.094 152.776 H 0 **** 0.053
52021 H 119.267 160.477 153.545 H 0 **** 0.053
52022 H 116.885 159.899 151.662 H 0 **** 0.053
52023 H 118.572 160.224 151.194 H 0 **** 0.053
52024 H 117.904 155.776 154.473 H 0 **** 0.1268
52025 H 118.824 154.484 152.59 H 0 **** 0.1268
52026 H 110.539 160.05 166.993 H 0 **** 0.053
52027 H 109.625 159.952 168.463 H 0 **** 0.053
52028 H 107.473 159.619 167.132 H 0 **** 0.053
52029 H 108.411 159.763 165.623 H 0 **** 0.053
52030 H 108.287 161.151 166.73 H 0 **** 0.053
52031 H 107.842 157.312 170.103 H 0 **** 0.053
52032 H 108.002 158.859 169.306 H 0 **** 0.053
52033 H 109.296 158.303 170.403 H 0 **** 0.053
52034 H 110.258 157.875 164.18 H 0 **** 0.053
52035 H 111.892 157.995 164.898 H 0 **** 0.053
52036 H 110.703 159.271 165.15 H 0 **** 0.053
52037 H 109.593 154.173 169.798 H 0 **** 0.053
52038 H 107.958 154.854 169.617 H 0 **** 0.053
52039 H 109.191 155.661 170.631 H 0 **** 0.053
52040 H 110.786 149.936 167.32 H 0 **** 0.053
52041 H 109.173 150.713 167.258 H 0 **** 0.053
52042 H 110.515 151.42 168.205 H 0 **** 0.053
52043 H 110.337 149.27 163.789 H 0 **** 0.053
52044 H 110.05 149.183 165.51 H 0 **** 0.053
52045 H 111.723 148.982 164.898 H 0 **** 0.053
52046 H 112.731 149.724 161.725 H 0 **** 0.41
52047 H 109.497 148.814 157.257 H 0 **** 0.053
52048 H 110.167 148.088 158.732 H 0 **** 0.053
52049 H 111.265 148.568 157.412 H 0 **** 0.053
52050 H 110.546 151.924 155.474 H 0 **** 0.053
52051 H 109.288 150.827 156.091 H 0 **** 0.053
52052 H 110.928 150.202 155.717 H 0 **** 0.053
52053 H 114.697 154.194 156.465 H 0 **** 0.41
52054 H 113.52 157.134 161.736 H 0 **** 0.41
52055 H 118.116 158.803 149.437 H 0 **** 0.053
52056 H 119.178 157.484 148.956 H 0 **** 0.053
52057 H 119.863 158.876 149.818 H 0 **** 0.053
52058 H 118.8 155.288 149.274 H 0 **** 0.053
52059 H 119.635 154.263 150.449 H 0 **** 0.053
52060 H 120.467 155.673 149.775 H 0 **** 0.053
52061 C 143.048 96.2814 136.229 C.2 0 **** 0
52062 C 143.877 97.0671 135.444 C.2 0 **** 0
52063 C 143.986 98.4255 135.696 C.2 0 **** 0
52064 C 143.275 98.9736 136.735 C.2 0 **** 0
52065 C 142.486 98.1819 137.561 C.2 0 **** 0
52066 C 142.381 96.8293 137.311 C.2 0 **** 0
52067 C 143.355 100.46 137.02 C.3 0 **** -0.106
52068 C 144.099 101.354 136.037 C.2 0 **** 0
52069 C 144.808 100.816 135 C.2 0 **** 0
52070 C 144.882 99.3008 134.824 C.3 0 **** -0.106
52071 C 145.459 101.663 134.096 C.2 0 **** 0
52072 C 145.337 103.035 134.189 C.2 0 **** 0
52073 C 144.704 103.582 135.299 C.2 0 **** 0
52074 C 144.063 102.747 136.223 C.2 0 **** 0
52075 C 143.381 103.294 137.3 C.2 0 **** -0.1268
52076 C 143.163 104.644 137.478 C.2 0 **** 0
52077 C 143.709 105.465 136.429 C.2 0 **** 0
52078 C 144.639 104.954 135.52 C.2 0 **** 0.042
52079 C 143.467 106.987 136.45 C.3 0 **** 0
52080 C 142.686 107.584 137.624 C.3 0 **** 0
52081 C 142.341 106.652 138.802 C.2 0 **** 0
52082 C 142.546 105.237 138.697 C.2 0 **** 0
52083 C 141.836 108.821 137.262 C.3 0 **** -0.106
52084 C 141.03 108.606 135.976 C.3 0 **** -0.053
52085 C 141.957 108.337 134.752 C.3 0 **** -0.053
52086 C 143.364 107.816 135.147 C.3 0 **** -0.106
52087 C 142.275 104.486 139.859 C.2 0 **** 0.042
52088 C 141.811 105.096 141.005 C.2 0 **** 0.052
52089 C 141.651 106.472 141.076 C.2 0 **** 0.052
52090 C 141.978 107.249 139.996 C.2 0 **** 0.042
52091 C 141.158 107.167 142.318 C.2 0 **** 0.367
52092 C 140.842 106.292 143.486 C.2 0 **** 0
52093 C 141.009 104.965 143.43 C.2 0 **** 0
52094 C 141.491 104.261 142.218 C.2 0 **** 0.367
52095 C 140.676 104.085 144.614 C.3 0 **** -0.106
52096 C 139.443 104.672 145.346 C.3 0 **** -0.106
52097 C 139.658 106.147 145.687 C.2 0 **** 0
52098 C 140.343 106.959 144.755 C.2 0 **** 0.2405
52099 N 140.553 108.275 144.971 N.2 0 **** -0.481
52100 C 140.009 108.825 146.052 C.2 0 **** 0.2405
52101 C 139.339 108.062 147.036 C.2 0 **** 0
52102 C 139.182 106.712 146.844 C.2 0 **** 0
52103 C 138.449 105.845 147.86 C.3 0 **** -0.106
52104 C 138.284 106.532 149.221 C.3 0 **** -0.106
52105 C 137.816 107.972 149.038 C.3 0 **** -0.106
52106 C 138.895 108.776 148.288 C.3 0 **** -0.053
52107 C 138.394 110.201 147.933 C.3 0 **** -0.106
52108 C 139.436 110.919 147.117 C.2 0 **** 0
52109 C 140.203 110.224 146.181 C.2 0 **** 0
52110 C 141.139 110.925 145.399 C.2 0 **** -0.1268
52111 C 141.264 112.293 145.546 C.2 0 **** -0.1268
52112 C 140.476 112.996 146.441 C.2 0 **** 0
52113 C 139.546 112.303 147.216 C.2 0 **** 0
52114 C 141.569 95.9481 138.226 C.3 0 **** -0.106
52115 C 140.077 95.9629 137.832 C.3 0 **** -0.159
52116 C 142.881 94.822 135.894 C.3 0 **** -0.159
52117 C 141.749 98.8569 138.695 C.3 0 **** -0.159
52118 C 144.659 96.4509 134.309 C.3 0 **** -0.159
52119 C 146.266 101.011 132.973 C.3 0 **** -0.159
52120 C 145.901 103.854 133.053 C.3 0 **** -0.159
52121 O 145.408 105.826 134.801 O.3 0 **** -0.452
52122 C 142.214 109.573 133.888 C.3 0 **** -0.159
52123 C 140.105 109.816 135.797 C.3 0 **** -0.159
52124 O 141.956 108.617 140.031 O.3 0 **** -0.452
52125 O 142.48 103.145 139.871 O.3 0 **** -0.452
52126 O 141.627 103.079 142.209 O.2 0 **** -0.419
52127 O 140.994 108.351 142.338 O.2 0 **** -0.419
52128 C 138.649 113.074 148.169 C.3 0 **** -0.159
52129 C 140.649 114.499 146.524 C.3 0 **** -0.159
52130 H 142.308 100.838 137.084 H 0 **** 0.053
52131 H 143.806 100.599 138.033 H 0 **** 0.053
52132 H 145.939 98.9803 134.988 H 0 **** 0.053
52133 H 144.647 99.0732 133.761 H 0 **** 0.053
52134 H 142.981 102.578 137.982 H 0 **** 0.1268
52135 H 141.144 109.079 138.066 H 0 **** 0.053
52136 H 142.539 109.647 137.137 H 0 **** 0.053
52137 H 140.393 107.716 136.123 H 0 **** 0.053
52138 H 141.467 107.574 134.133 H 0 **** 0.053
52139 H 144.022 108.67 135.333 H 0 **** 0.053
52140 H 143.775 107.266 134.291 H 0 **** 0.053
52141 H 140.461 103.041 144.322 H 0 **** 0.053
52142 H 141.55 104.053 145.286 H 0 **** 0.053
52143 H 139.257 104.04 146.232 H 0 **** 0.053
52144 H 138.551 104.551 144.696 H 0 **** 0.053
52145 H 137.447 105.588 147.466 H 0 **** 0.053
52146 H 138.975 104.888 148.029 H 0 **** 0.053
52147 H 139.251 106.535 149.758 H 0 **** 0.053
52148 H 137.576 105.967 149.856 H 0 **** 0.053
52149 H 137.6 108.451 150.012 H 0 **** 0.053
52150 H 136.875 107.988 148.459 H 0 **** 0.053
52151 H 139.772 108.881 148.973 H 0 **** 0.053
52152 H 137.446 110.118 147.354 H 0 **** 0.053
52153 H 138.14 110.728 148.878 H 0 **** 0.053
52154 H 141.765 110.401 144.667 H 0 **** 0.1268
52155 H 141.995 112.837 144.927 H 0 **** 0.1268
52156 H 141.668 96.2452 139.288 H 0 **** 0.053
52157 H 141.926 94.9028 138.223 H 0 **** 0.053
52158 H 139.937 95.6206 136.793 H 0 **** 0.053
52159 H 139.648 96.9752 137.914 H 0 **** 0.053
52160 H 139.475 95.2966 138.482 H 0 **** 0.053
52161 H 142.993 94.6128 134.812 H 0 **** 0.053
52162 H 141.874 94.4368 136.143 H 0 **** 0.053
52163 H 143.618 94.1842 136.43 H 0 **** 0.053
52164 H 141.029 99.6181 138.319 H 0 **** 0.053
52165 H 142.444 99.3806 139.386 H 0 **** 0.053
52166 H 141.151 98.1844 139.328 H 0 **** 0.053
52167 H 145.576 97.0133 134.046 H 0 **** 0.053
52168 H 144.049 96.3816 133.381 H 0 **** 0.053
52169 H 145.016 95.4307 134.547 H 0 **** 0.053
52170 H 147.138 101.617 132.673 H 0 **** 0.053
52171 H 145.647 100.84 132.063 H 0 **** 0.053
52172 H 146.701 100.025 133.255 H 0 **** 0.053
52173 H 145.225 104.687 132.76 H 0 **** 0.053
52174 H 146.038 103.294 132.087 H 0 **** 0.053
52175 H 146.898 104.306 133.291 H 0 **** 0.053
52176 H 145.439 106.674 135.253 H 0 **** 0.41
52177 H 141.289 109.946 133.427 H 0 **** 0.053
52178 H 142.916 109.333 133.068 H 0 **** 0.053
52179 H 142.668 110.391 134.481 H 0 **** 0.053
52180 H 139.419 109.913 136.66 H 0 **** 0.053
52181 H 139.486 109.716 134.893 H 0 **** 0.053
52182 H 140.679 110.761 135.732 H 0 **** 0.053
52183 H 141.55 108.893 140.867 H 0 **** 0.41
52184 H 142.203 102.775 140.722 H 0 **** 0.41
52185 H 137.585 112.801 148.035 H 0 **** 0.053
52186 H 138.691 114.171 148.029 H 0 **** 0.053
52187 H 138.916 112.884 149.229 H 0 **** 0.053
52188 H 139.73 115.037 146.226 H 0 **** 0.053
52189 H 141.452 114.863 145.859 H 0 **** 0.053
52190 H 140.914 114.828 147.544 H 0 **** 0.053
52191 C 137.639 191.926 115.532 C.2 0 **** 0
52192 C 137.417 190.868 116.401 C.2 0 **** 0
52193 C 138.301 189.803 116.435 C.2 0 **** 0
52194 C 139.401 189.817 115.612 C.2 0 **** 0
52195 C 139.659 190.899 114.78 C.2 0 **** 0
52196 C 138.778 191.961 114.749 C.2 0 **** 0
52197 C 140.374 188.655 115.61 C.3 0 **** -0.106
52198 C 140.023 187.406 116.406 C.2 0 **** 0
52199 C 138.93 187.384 117.227 C.2 0 **** 0
52200 C 138.053 188.625 117.374 C.3 0 **** -0.106
52201 C 138.617 186.213 117.925 C.2 0 **** 0
52202 C 139.347 185.056 117.746 C.2 0 **** 0
52203 C 140.515 185.107 116.994 C.2 0 **** 0
52204 C 140.853 186.276 116.302 C.2 0 **** 0
52205 C 141.988 186.311 115.505 C.2 0 **** -0.1268
52206 C 142.772 185.213 115.221 C.2 0 **** 0
52207 C 142.309 183.993 115.83 C.2 0 **** 0
52208 C 141.363 184.012 116.858 C.2 0 **** 0.042
52209 C 143.038 182.668 115.531 C.3 0 **** 0
52210 C 144.27 182.704 114.623 C.3 0 **** 0
52211 C 144.813 184.086 114.207 C.2 0 **** 0
52212 C 144.059 185.276 114.474 C.2 0 **** 0
52213 C 144.468 181.437 113.765 C.3 0 **** -0.106
52214 C 143.166 180.994 113.089 C.3 0 **** -0.053
52215 C 142.062 180.649 114.134 C.3 0 **** -0.053
52216 C 142.292 181.312 115.517 C.3 0 **** -0.106
52217 C 144.681 186.492 114.125 C.2 0 **** 0.042
52218 C 145.928 186.507 113.537 C.2 0 **** 0.052
52219 C 146.638 185.335 113.321 C.2 0 **** 0.052
52220 C 146.105 184.136 113.715 C.2 0 **** 0.042
52221 C 148.006 185.323 112.691 C.2 0 **** 0.367
52222 C 148.569 186.649 112.302 C.2 0 **** 0
52223 C 147.898 187.785 112.521 C.2 0 **** 0
52224 C 146.55 187.821 113.138 C.2 0 **** 0.367
52225 C 148.47 189.123 112.113 C.3 0 **** -0.106
52226 C 149.27 188.95 110.798 C.3 0 **** -0.106
52227 C 150.3 187.827 110.927 C.2 0 **** 0
52228 C 149.947 186.674 111.664 C.2 0 **** 0.2405
52229 N 150.79 185.628 111.802 N.2 0 **** -0.481
52230 C 151.944 185.664 111.143 C.2 0 **** 0.2405
52231 C 152.366 186.8 110.414 C.2 0 **** 0
52232 C 151.532 187.886 110.325 C.2 0 **** 0
52233 C 151.925 189.128 109.534 C.3 0 **** -0.106
52234 C 153.425 189.182 109.219 C.3 0 **** -0.106
52235 C 153.915 187.828 108.717 C.3 0 **** -0.106
52236 C 153.756 186.775 109.83 C.3 0 **** -0.053
52237 C 154.085 185.35 109.311 C.3 0 **** -0.106
52238 C 153.824 184.339 110.396 C.2 0 **** 0
52239 C 152.75 184.505 111.272 C.2 0 **** 0
52240 C 152.498 183.523 112.247 C.2 0 **** -0.1268
52241 C 153.298 182.398 112.307 C.2 0 **** -0.1268
52242 C 154.339 182.207 111.415 C.2 0 **** 0
52243 C 154.588 183.177 110.445 C.2 0 **** 0
52244 C 139.07 193.165 113.891 C.3 0 **** -0.106
52245 C 138.588 192.944 112.441 C.3 0 **** -0.159
52246 C 136.627 193.04 115.452 C.3 0 **** -0.159
52247 C 140.899 190.848 113.918 C.3 0 **** -0.159
52248 C 136.209 190.869 117.306 C.3 0 **** -0.159
52249 C 137.404 186.25 118.856 C.3 0 **** -0.159
52250 C 138.809 183.797 118.384 C.3 0 **** -0.159
52251 O 141.235 182.911 117.658 O.3 0 **** -0.452
52252 C 141.931 179.152 114.422 C.3 0 **** -0.159
52253 C 143.502 179.838 112.139 C.3 0 **** -0.159
52254 O 146.792 182.955 113.637 O.3 0 **** -0.452
52255 O 144.064 187.673 114.377 O.3 0 **** -0.452
52256 O 145.983 188.851 113.316 O.2 0 **** -0.419
52257 O 148.578 184.293 112.481 O.2 0 **** -0.419
52258 C 155.701 182.952 109.435 C.3 0 **** -0.159
52259 C 155.153 180.933 111.523 C.3 0 **** -0.159
52260 H 140.51 188.343 114.549 H 0 **** 0.053
52261 H 141.367 189.029 115.961 H 0 **** 0.053
52262 H 138.146 188.998 118.423 H 0 **** 0.053
52263 H 136.995 188.308 117.247 H 0 **** 0.053
52264 H 142.197 187.263 115.071 H 0 **** 0.1268
52265 H 145.224 181.591 112.993 H 0 **** 0.053
52266 H 144.826 180.661 114.445 H 0 **** 0.053
52267 H 142.802 181.837 112.475 H 0 **** 0.053
52268 H 141.107 181.011 113.731 H 0 **** 0.053
52269 H 142.931 180.662 116.122 H 0 **** 0.053
52270 H 141.323 181.385 116.025 H 0 **** 0.053
52271 H 147.691 189.893 111.965 H 0 **** 0.053
52272 H 149.126 189.487 112.923 H 0 **** 0.053
52273 H 149.717 189.929 110.555 H 0 **** 0.053
52274 H 148.557 188.731 109.975 H 0 **** 0.053
52275 H 151.36 189.15 108.583 H 0 **** 0.053
52276 H 151.664 190.054 110.078 H 0 **** 0.053
52277 H 153.99 189.452 110.132 H 0 **** 0.053
52278 H 153.636 189.975 108.478 H 0 **** 0.053
52279 H 154.972 187.878 108.395 H 0 **** 0.053
52280 H 153.326 187.523 107.832 H 0 **** 0.053
52281 H 154.49 187.025 110.635 H 0 **** 0.053
52282 H 153.449 185.131 108.424 H 0 **** 0.053
52283 H 155.137 185.343 108.951 H 0 **** 0.053
52284 H 151.67 183.635 112.958 H 0 **** 0.1268
52285 H 153.093 181.631 113.071 H 0 **** 0.1268
52286 H 140.148 193.419 113.88 H 0 **** 0.053
52287 H 138.598 194.082 114.286 H 0 **** 0.053
52288 H 137.505 192.74 112.41 H 0 **** 0.053
52289 H 139.106 192.093 111.97 H 0 **** 0.053
52290 H 138.774 193.835 111.808 H 0 **** 0.053
52291 H 135.596 192.701 115.672 H 0 **** 0.053
52292 H 136.559 193.486 114.442 H 0 **** 0.053
52293 H 136.859 193.865 116.161 H 0 **** 0.053
52294 H 140.869 189.991 113.208 H 0 **** 0.053
52295 H 141.822 190.731 114.527 H 0 **** 0.053
52296 H 141.067 191.735 113.29 H 0 **** 0.053
52297 H 136.341 190.26 118.221 H 0 **** 0.053
52298 H 135.307 190.474 116.786 H 0 **** 0.053
52299 H 135.959 191.881 117.677 H 0 **** 0.053
52300 H 137.522 185.589 119.732 H 0 **** 0.053
52301 H 136.468 185.951 118.331 H 0 **** 0.053
52302 H 137.218 187.255 119.299 H 0 **** 0.053
52303 H 138.891 182.918 117.707 H 0 **** 0.053
52304 H 137.711 183.822 118.623 H 0 **** 0.053
52305 H 139.328 183.529 119.34 H 0 **** 0.053
52306 H 142.038 182.386 117.611 H 0 **** 0.41
52307 H 141.619 178.592 113.53 H 0 **** 0.053
52308 H 141.17 178.974 115.205 H 0 **** 0.053
52309 H 142.886 178.728 114.789 H 0 **** 0.053
52310 H 144.233 180.161 111.374 H 0 **** 0.053
52311 H 142.607 179.48 111.61 H 0 **** 0.053
52312 H 143.958 178.985 112.681 H 0 **** 0.053
52313 H 147.615 183.115 113.151 H 0 **** 0.41
52314 H 144.601 188.407 114.041 H 0 **** 0.41
52315 H 155.348 183.114 108.4 H 0 **** 0.053
52316 H 156.111 181.924 109.449 H 0 **** 0.053
52317 H 156.559 183.633 109.61 H 0 **** 0.053
52318 H 155.063 180.308 110.615 H 0 **** 0.053
52319 H 154.828 180.302 112.369 H 0 **** 0.053
52320 H 156.225 181.142 111.681 H 0 **** 0.053
52321 C 186.688 154.817 144.447 C.2 0 **** 0
52322 C 187.703 154.118 143.813 C.2 0 **** 0
52323 C 187.831 152.752 144.01 C.2 0 **** 0
52324 C 186.934 152.104 144.823 C.2 0 **** 0
52325 C 185.881 152.789 145.417 C.2 0 **** 0
52326 C 185.754 154.148 145.219 C.2 0 **** 0
52327 C 187.061 150.615 145.076 C.3 0 **** -0.106
52328 C 188.291 149.887 144.551 C.2 0 **** 0
52329 C 189.189 150.525 143.741 C.2 0 **** 0
52330 C 188.958 151.978 143.331 C.3 0 **** -0.106
52331 C 190.324 149.84 143.295 C.2 0 **** 0
52332 C 190.594 148.553 143.718 C.2 0 **** 0
52333 C 189.633 147.871 144.456 C.2 0 **** 0
52334 C 188.483 148.538 144.895 C.2 0 **** 0
52335 C 187.551 147.875 145.679 C.2 0 **** -0.1268
52336 C 187.727 146.607 146.192 C.2 0 **** 0
52337 C 188.989 146.008 145.842 C.2 0 **** 0
52338 C 189.784 146.537 144.823 C.2 0 **** 0.042
52339 C 189.361 144.626 146.417 C.3 0 **** 0
52340 C 188.344 143.912 147.31 C.3 0 **** 0
52341 C 186.94 144.536 147.438 C.2 0 **** 0
52342 C 186.675 145.847 146.924 C.2 0 **** 0
52343 C 188.97 143.033 148.414 C.3 0 **** -0.106
52344 C 190.099 143.759 149.152 C.3 0 **** -0.053
52345 C 191.262 144.15 148.19 C.3 0 **** -0.053
52346 C 190.829 144.23 146.702 C.3 0 **** -0.106
52347 C 185.341 146.291 147.02 C.2 0 **** 0.042
52348 C 184.373 145.503 147.606 C.2 0 **** 0.052
52349 C 184.662 144.228 148.067 C.2 0 **** 0.052
52350 C 185.929 143.726 147.923 C.2 0 **** 0.042
52351 C 183.622 143.341 148.7 C.2 0 **** 0.367
52352 C 182.246 143.908 148.814 C.2 0 **** 0
52353 C 181.955 145.132 148.357 C.2 0 **** 0
52354 C 182.963 146.022 147.732 C.2 0 **** 0.367
52355 C 180.562 145.704 148.486 C.3 0 **** -0.106
52356 C 179.938 145.215 149.817 C.3 0 **** -0.106
52357 C 180.017 143.693 149.933 C.2 0 **** 0
52358 C 181.172 143.041 149.446 C.2 0 **** 0.2405
52359 N 181.33 141.703 149.535 N.2 0 **** -0.481
52360 C 180.402 141.007 150.185 C.2 0 **** 0.2405
52361 C 179.211 141.596 150.668 C.2 0 **** 0
52362 C 179.026 142.948 150.523 C.2 0 **** 0
52363 C 177.772 143.639 151.045 C.3 0 **** -0.106
52364 C 176.637 142.657 151.358 C.3 0 **** -0.106
52365 C 177.169 141.456 152.133 C.3 0 **** -0.106
52366 C 178.171 140.677 151.259 C.3 0 **** -0.053
52367 C 178.862 139.546 152.064 C.3 0 **** -0.106
52368 C 179.902 138.874 151.208 C.2 0 **** 0
52369 C 180.664 139.619 150.306 C.2 0 **** 0
52370 C 181.662 138.976 149.552 C.2 0 **** -0.1268
52371 C 181.894 137.627 149.734 C.2 0 **** -0.1268
52372 C 181.172 136.89 150.656 C.2 0 **** 0
52373 C 180.184 137.526 151.408 C.2 0 **** 0
52374 C 184.589 154.897 145.814 C.3 0 **** -0.106
52375 C 184.879 155.309 147.272 C.3 0 **** -0.159
52376 C 186.61 156.313 144.285 C.3 0 **** -0.159
52377 C 184.926 152.002 146.284 C.3 0 **** -0.159
52378 C 188.677 154.841 142.915 C.3 0 **** -0.159
52379 C 191.279 150.586 142.364 C.3 0 **** -0.159
52380 C 191.94 147.976 143.348 C.3 0 **** -0.159
52381 O 190.753 145.753 144.265 O.3 0 **** -0.452
52382 C 192.439 143.173 148.215 C.3 0 **** -0.159
52383 C 190.537 142.872 150.323 C.3 0 **** -0.159
52384 O 186.259 142.438 148.249 O.3 0 **** -0.452
52385 O 184.984 147.501 146.522 O.3 0 **** -0.452
52386 O 182.666 147.104 147.338 O.2 0 **** -0.419
52387 O 183.91 142.259 149.123 O.2 0 **** -0.419
52388 C 179.419 136.733 152.454 C.3 0 **** -0.159
52389 C 181.506 135.421 150.823 C.3 0 **** -0.159
52390 H 187.036 150.466 146.18 H 0 **** 0.053
52391 H 186.152 150.111 144.665 H 0 **** 0.053
52392 H 188.779 152.008 142.229 H 0 **** 0.053
52393 H 189.905 152.534 143.51 H 0 **** 0.053
52394 H 186.679 148.445 145.91 H 0 **** 0.1268
52395 H 188.223 142.718 149.144 H 0 **** 0.053
52396 H 189.354 142.142 147.911 H 0 **** 0.053
52397 H 189.68 144.689 149.576 H 0 **** 0.053
52398 H 191.623 145.139 148.499 H 0 **** 0.053
52399 H 190.919 143.237 146.251 H 0 **** 0.053
52400 H 191.53 144.892 146.18 H 0 **** 0.053
52401 H 180.55 146.809 148.465 H 0 **** 0.053
52402 H 179.96 145.363 147.626 H 0 **** 0.053
52403 H 178.906 145.606 149.858 H 0 **** 0.053
52404 H 180.476 145.699 150.661 H 0 **** 0.053
52405 H 178.021 144.202 151.965 H 0 **** 0.053
52406 H 177.386 144.378 150.319 H 0 **** 0.053
52407 H 176.18 142.301 150.415 H 0 **** 0.053
52408 H 175.832 143.163 151.922 H 0 **** 0.053
52409 H 176.347 140.786 152.449 H 0 **** 0.053
52410 H 177.672 141.801 153.055 H 0 **** 0.053
52411 H 177.593 140.205 150.428 H 0 **** 0.053
52412 H 179.338 139.984 152.971 H 0 **** 0.053
52413 H 178.078 138.847 152.429 H 0 **** 0.053
52414 H 182.264 139.535 148.825 H 0 **** 0.1268
52415 H 182.681 137.131 149.143 H 0 **** 0.1268
52416 H 183.653 154.305 145.783 H 0 **** 0.053
52417 H 184.334 155.801 145.233 H 0 **** 0.053
52418 H 185.778 155.945 147.334 H 0 **** 0.053
52419 H 185.043 154.429 147.915 H 0 **** 0.053
52420 H 184.038 155.884 147.71 H 0 **** 0.053
52421 H 187.601 156.782 144.129 H 0 **** 0.053
52422 H 186.205 156.821 145.181 H 0 **** 0.053
52423 H 185.969 156.606 143.424 H 0 **** 0.053
52424 H 185.446 151.544 147.156 H 0 **** 0.053
52425 H 184.444 151.172 145.723 H 0 **** 0.053
52426 H 184.101 152.586 146.718 H 0 **** 0.053
52427 H 189.137 154.19 142.147 H 0 **** 0.053
52428 H 189.513 155.291 143.496 H 0 **** 0.053
52429 H 188.197 155.656 142.341 H 0 **** 0.053
52430 H 191.781 149.915 141.645 H 0 **** 0.053
52431 H 192.072 151.128 142.93 H 0 **** 0.053
52432 H 190.771 151.34 141.722 H 0 **** 0.053
52433 H 192.402 147.418 144.192 H 0 **** 0.053
52434 H 192.726 148.739 143.096 H 0 **** 0.053
52435 H 191.896 147.277 142.472 H 0 **** 0.053
52436 H 190.551 144.828 144.43 H 0 **** 0.41
52437 H 192.925 143.148 149.2 H 0 **** 0.053
52438 H 193.207 143.474 147.478 H 0 **** 0.053
52439 H 192.116 142.146 147.954 H 0 **** 0.053
52440 H 189.692 142.69 151.013 H 0 **** 0.053
52441 H 191.342 143.345 150.905 H 0 **** 0.053
52442 H 190.889 141.88 149.974 H 0 **** 0.053
52443 H 185.502 142.037 148.702 H 0 **** 0.41
52444 H 184.049 147.674 146.709 H 0 **** 0.41
52445 H 179.409 137.254 153.43 H 0 **** 0.053
52446 H 179.85 135.734 152.657 H 0 **** 0.053
52447 H 178.365 136.564 152.151 H 0 **** 0.053
52448 H 181.879 135.197 151.839 H 0 **** 0.053
52449 H 182.292 135.091 150.121 H 0 **** 0.053
52450 H 180.629 134.777 150.637 H 0 **** 0.053
52451 C 174.027 135.842 146.443 C.2 0 **** 0
52452 C 173.611 135.362 145.211 C.2 0 **** 0
52453 C 174.519 134.746 144.365 C.2 0 **** 0
52454 C 175.824 134.607 144.769 C.2 0 **** 0
52455 C 176.236 135.037 146.025 C.2 0 **** 0
52456 C 175.33 135.647 146.867 C.2 0 **** 0
52457 C 176.846 133.959 143.856 C.3 0 **** -0.106
52458 C 176.44 133.62 142.428 C.2 0 **** 0
52459 C 175.143 133.757 142.018 C.2 0 **** 0
52460 C 174.073 134.232 142.999 C.3 0 **** -0.106
52461 C 174.804 133.464 140.693 C.2 0 **** 0
52462 C 175.768 133.111 139.77 C.2 0 **** 0
52463 C 177.065 132.873 140.209 C.2 0 **** 0
52464 C 177.417 133.144 141.537 C.2 0 **** 0
52465 C 178.725 132.962 141.962 C.2 0 **** -0.1268
52466 C 179.778 132.649 141.127 C.2 0 **** 0
52467 C 179.404 132.523 139.742 C.2 0 **** 0
52468 C 178.065 132.408 139.361 C.2 0 **** 0.042
52469 C 180.492 132.261 138.682 C.3 0 **** 0
52470 C 181.94 132.095 139.151 C.3 0 **** 0
52471 C 182.198 132.022 140.669 C.2 0 **** 0
52472 C 181.152 132.327 141.601 C.2 0 **** 0
52473 C 182.998 132.603 138.148 C.3 0 **** -0.106
52474 C 182.642 133.984 137.591 C.3 0 **** -0.053
52475 C 181.284 133.966 136.825 C.3 0 **** -0.053
52476 C 180.362 132.787 137.232 C.3 0 **** -0.106
52477 C 181.469 132.152 142.963 C.2 0 **** 0.042
52478 C 182.727 131.741 143.351 C.2 0 **** 0.052
52479 C 183.704 131.429 142.417 C.2 0 **** 0.052
52480 C 183.415 131.51 141.081 C.2 0 **** 0.042
52481 C 185.081 130.966 142.812 C.2 0 **** 0.367
52482 C 185.352 130.861 144.276 C.2 0 **** 0
52483 C 184.41 131.145 145.183 C.2 0 **** 0
52484 C 183.048 131.604 144.818 C.2 0 **** 0.367
52485 C 184.696 131.047 146.664 C.3 0 **** -0.106
52486 C 186.162 131.474 146.925 C.3 0 **** -0.106
52487 C 187.127 130.691 146.035 C.2 0 **** 0
52488 C 186.731 130.397 144.71 C.2 0 **** 0.2405
52489 N 187.536 129.732 143.854 N.2 0 **** -0.481
52490 C 188.768 129.436 144.257 C.2 0 **** 0.2405
52491 C 189.212 129.678 145.578 C.2 0 **** 0
52492 C 188.37 130.299 146.465 C.2 0 **** 0
52493 C 188.805 130.605 147.893 C.3 0 **** -0.106
52494 C 190.053 129.821 148.316 C.3 0 **** -0.106
52495 C 191.111 129.869 147.219 C.3 0 **** -0.106
52496 C 190.58 129.166 145.955 C.3 0 **** -0.053
52497 C 191.556 129.337 144.761 C.3 0 **** -0.106
52498 C 190.959 128.723 143.523 C.2 0 **** 0
52499 C 189.585 128.805 143.286 C.2 0 **** 0
52500 C 189.057 128.265 142.099 C.2 0 **** -0.1268
52501 C 189.906 127.689 141.174 C.2 0 **** -0.1268
52502 C 191.273 127.642 141.382 C.2 0 **** 0
52503 C 191.799 128.18 142.557 C.2 0 **** 0
52504 C 175.747 136.072 148.252 C.3 0 **** -0.106
52505 C 176.408 137.467 148.232 C.3 0 **** -0.159
52506 C 173.046 136.577 147.318 C.3 0 **** -0.159
52507 C 177.685 134.831 146.402 C.3 0 **** -0.159
52508 C 172.172 135.514 144.783 C.3 0 **** -0.159
52509 C 173.335 133.6 140.294 C.3 0 **** -0.159
52510 C 175.335 133.016 138.326 C.3 0 **** -0.159
52511 O 177.772 131.915 138.12 O.3 0 **** -0.452
52512 C 181.434 133.854 135.307 C.3 0 **** -0.159
52513 C 183.825 134.465 136.742 C.3 0 **** -0.159
52514 O 184.289 131.111 140.106 O.3 0 **** -0.452
52515 O 180.532 132.374 143.919 O.3 0 **** -0.452
52516 O 182.238 131.847 145.653 O.2 0 **** -0.419
52517 O 185.916 130.741 141.985 O.2 0 **** -0.419
52518 C 193.303 128.171 142.771 C.3 0 **** -0.159
52519 C 192.143 127.022 140.307 C.3 0 **** -0.159
52520 H 177.718 134.65 143.797 H 0 **** 0.053
52521 H 177.213 133.025 144.348 H 0 **** 0.053
52522 H 173.353 133.395 143.165 H 0 **** 0.053
52523 H 173.498 135.045 142.503 H 0 **** 0.053
52524 H 178.881 133.133 143.003 H 0 **** 0.1268
52525 H 183.988 132.657 138.605 H 0 **** 0.053
52526 H 183.033 131.865 137.343 H 0 **** 0.053
52527 H 182.541 134.676 138.447 H 0 **** 0.053
52528 H 180.766 134.906 137.057 H 0 **** 0.053
52529 H 180.608 131.915 136.62 H 0 **** 0.053
52530 H 179.328 133.069 137.002 H 0 **** 0.053
52531 H 184.021 131.677 147.272 H 0 **** 0.053
52532 H 184.531 130.004 146.986 H 0 **** 0.053
52533 H 186.355 131.343 148.003 H 0 **** 0.053
52534 H 186.253 132.565 146.733 H 0 **** 0.053
52535 H 189.015 131.687 147.988 H 0 **** 0.053
52536 H 188.003 130.375 148.618 H 0 **** 0.053
52537 H 189.784 128.765 148.508 H 0 **** 0.053
52538 H 190.455 130.217 149.267 H 0 **** 0.053
52539 H 192.053 129.39 147.548 H 0 **** 0.053
52540 H 191.355 130.921 146.983 H 0 **** 0.053
52541 H 190.506 128.075 146.185 H 0 **** 0.053
52542 H 191.743 130.423 144.598 H 0 **** 0.053
52543 H 192.534 128.89 145.043 H 0 **** 0.053
52544 H 187.98 128.303 141.895 H 0 **** 0.1268
52545 H 189.486 127.272 140.244 H 0 **** 0.1268
52546 H 176.443 135.348 148.719 H 0 **** 0.053
52547 H 174.896 136.093 148.956 H 0 **** 0.053
52548 H 175.722 138.225 147.82 H 0 **** 0.053
52549 H 177.323 137.469 147.617 H 0 **** 0.053
52550 H 176.695 137.799 149.25 H 0 **** 0.053
52551 H 172.271 137.116 146.739 H 0 **** 0.053
52552 H 173.523 137.363 147.933 H 0 **** 0.053
52553 H 172.515 135.892 148.016 H 0 **** 0.053
52554 H 178.368 135.381 145.717 H 0 **** 0.053
52555 H 177.976 133.759 146.359 H 0 **** 0.053
52556 H 177.956 135.173 147.412 H 0 **** 0.053
52557 H 171.847 134.755 144.044 H 0 **** 0.053
52558 H 171.984 136.509 144.323 H 0 **** 0.053
52559 H 171.465 135.401 145.628 H 0 **** 0.053
52560 H 173.04 132.881 139.509 H 0 **** 0.053
52561 H 173.098 134.623 139.92 H 0 **** 0.053
52562 H 172.629 133.392 141.13 H 0 **** 0.053
52563 H 176.083 133.466 137.635 H 0 **** 0.053
52564 H 174.397 133.583 138.077 H 0 **** 0.053
52565 H 175.16 131.963 137.985 H 0 **** 0.053
52566 H 178.52 131.41 137.791 H 0 **** 0.41
52567 H 181.95 134.727 134.884 H 0 **** 0.053
52568 H 180.44 133.794 134.824 H 0 **** 0.053
52569 H 181.993 132.941 135.023 H 0 **** 0.053
52570 H 184.744 134.531 137.355 H 0 **** 0.053
52571 H 183.637 135.464 136.321 H 0 **** 0.053
52572 H 184.04 133.765 135.91 H 0 **** 0.053
52573 H 185.139 130.91 140.525 H 0 **** 0.41
52574 H 180.92 132.256 144.799 H 0 **** 0.41
52575 H 193.677 129.171 143.06 H 0 **** 0.053
52576 H 193.879 127.89 141.868 H 0 **** 0.053
52577 H 193.601 127.456 143.566 H 0 **** 0.053
52578 H 192.845 127.756 139.871 H 0 **** 0.053
52579 H 191.547 126.624 139.468 H 0 **** 0.053
52580 H 192.739 126.178 140.696 H 0 **** 0.053
52581 C1 168.337 153.379 144.015 C.ar 0 **** 0.042
52582 C2 167.019 153.452 143.605 C.ar 0 **** -0.1268
52583 C3 166.108 154.238 144.29 C.ar 0 **** 0
52584 C4 166.494 154.975 145.411 C.ar 0 **** 0
52585 C5 167.833 154.905 145.809 C.ar 0 **** -0.1268
52586 C6 168.75 154.111 145.137 C.ar 0 **** 0
52587 C7 165.315 155.678 145.893 C.ar 0 **** 0
52588 C8 164.263 155.361 145.051 C.ar 0 **** 0
52589 C9 164.657 154.421 143.963 C.3 0 **** -0.106
52590 C10 163.006 155.913 145.27 C.ar 0 **** 0
52591 C11 162.786 156.8 146.344 C.ar 0 **** 0
52592 C12 163.901 157.082 147.181 C.ar 0 **** 0
52593 C13 165.163 156.516 146.969 C.ar 0 **** 0
52594 C14 166.31 156.849 147.882 C.3 0 **** -0.106
52595 C15 165.815 157.117 149.303 C.3 0 **** -0.106
52596 C16 164.882 158.296 149.247 C.3 0 **** -0.106
52597 C17 163.686 158.033 148.357 C.ar 0 **** 0
52598 C18 162.493 158.636 148.598 C.ar 0 **** 0
52599 C19 161.418 158.402 147.787 C.ar 0 **** 0
52600 C20 161.495 157.39 146.577 C.ar 0 **** 0
52601 C21 160.419 156.975 145.695 C.ar 0 **** 0
52602 C22 160.74 156.117 144.639 C.ar 0 **** 0
52603 C23 161.964 155.589 144.416 C.ar 0 **** 0.042
52604 C24 160.108 159.125 148.062 C.3 0 **** -0.106
52605 C25 160.155 160.278 149.106 C.ar 0 **** 0
52606 C26 161.256 160.444 149.91 C.ar 0 **** 0
52607 C27 162.462 159.569 149.805 C.3 0 **** -0.106
52608 C28 161.277 161.443 150.882 C.ar 0 **** 0.042
52609 C29 160.201 162.29 151.088 C.ar 0 **** 0
52610 C30 159.104 162.114 150.259 C.ar 0 **** 0
52611 C31 159.064 161.126 149.279 C.ar 0 **** 0
52612 C32 157.852 162.998 150.386 C.ar 0 **** 0
52613 C33 157.945 164.061 151.486 C.3 0 **** -0.106
52614 C34 158.816 163.617 152.66 C.3 0 **** -0.106
52615 C35 160.231 163.369 152.143 C.3 0 **** -0.106
52616 C36 157.814 161.022 148.428 C.ar 0 **** -0.1268
52617 C37 156.771 161.866 148.642 C.ar 0 **** 0.0265
52618 C38 156.774 162.821 149.582 C.ar 0 **** -0.1268
52619 C39 159.637 155.743 143.719 C.3 0 **** -0.106
52620 C40 158.54 156.478 144.419 C.ar 0 **** 0
52621 C41 158.979 157.182 145.541 C.ar 0 **** 0
52622 C42 157.973 157.854 146.265 C.ar 0 **** -0.1268
52623 C43 156.625 157.849 145.85 C.ar 0 **** 0
52624 C44 156.223 157.141 144.698 C.ar 0 **** 0
52625 C45 157.206 156.438 143.983 C.ar 0 **** 0
52626 C46 156.819 155.696 142.846 C.ar 0 **** -0.1268
52627 C47 155.507 155.638 142.404 C.ar 0 **** 0
52628 C48 154.553 156.335 143.124 C.ar 0 **** -0.1268
52629 C49 154.876 157.088 144.265 C.ar 0 **** 0
52630 C50 153.906 157.788 145.004 C.ar 0 **** 0.042
52631 C51 154.268 158.497 146.132 C.ar 0 **** -0.1268
52632 C52 155.593 158.525 146.558 C.ar 0 **** -0.1268
52633 O53 169.245 152.602 143.336 O.3 0 **** -0.452
52634 C54 170.2 154.057 145.592 C.3 0 **** -0.159
52635 O55 162.153 154.758 143.377 O.3 0 **** -0.452
52636 C56 155.236 154.79 141.166 C.3 0 **** -0.106
52637 C57 153.799 154.929 140.649 C.3 0 **** -0.159
52638 O58 155.681 161.731 147.868 O.3 0 **** -0.4365
52639 O59 162.36 161.641 151.694 O.3 0 **** -0.452
52640 O60 152.594 157.822 144.696 O.3 0 **** -0.452
52641 H61 166.653 152.888 142.716 H 0 **** 0.1268
52642 H62 168.245 155.468 146.657 H 0 **** 0.1268
52643 H63 164.132 153.45 144.008 H 0 **** 0.053
52644 H64 164.55 154.849 142.949 H 0 **** 0.053
52645 H65 167.021 156.031 147.947 H 0 **** 0.053
52646 H66 166.85 157.752 147.519 H 0 **** 0.053
52647 H67 165.312 156.21 149.719 H 0 **** 0.053
52648 H68 166.688 157.33 149.989 H 0 **** 0.053
52649 H69 164.567 158.532 150.271 H 0 **** 0.053
52650 H70 165.44 159.173 148.875 H 0 **** 0.053
52651 H71 159.745 159.555 147.105 H 0 **** 0.053
52652 H72 163.341 160.217 149.732 H 0 **** 0.053
52653 H73 158.365 164.989 151.047 H 0 **** 0.053
52654 H74 156.922 164.295 151.809 H 0 **** 0.053
52655 H75 158.824 164.394 153.434 H 0 **** 0.053
52656 H76 158.405 162.707 153.12 H 0 **** 0.053
52657 H77 160.64 164.289 151.704 H 0 **** 0.053
52658 H78 160.886 163.081 152.958 H 0 **** 0.053
52659 H79 157.796 160.277 147.656 H 0 **** 0.1268
52660 H80 155.934 163.482 149.725 H 0 **** 0.1268
52661 H81 159.776 156.124 142.695 H 0 **** 0.053
52662 H82 159.433 154.66 143.7 H 0 **** 0.053
52663 H83 158.128 158.396 147.187 H 0 **** 0.1268
52664 H84 157.583 155.137 142.275 H 0 **** 0.1268
52665 H85 153.522 156.287 142.784 H 0 **** 0.1268
52666 H86 153.523 159.048 146.731 H 0 **** 0.1268
52667 H87 155.871 159.075 147.501 H 0 **** 0.1268
52668 H88 168.793 152.183 142.616 H 0 **** 0.41
52669 H89 170.632 153.067 145.407 H 0 **** 0.053
52670 H90 170.3 154.254 146.669 H 0 **** 0.053
52671 H91 170.805 154.797 145.045 H 0 **** 0.053
52672 H92 161.344 154.637 142.899 H 0 **** 0.41
52673 H93 155.922 155.082 140.364 H 0 **** 0.053
52674 H94 153.636 154.311 139.744 H 0 **** 0.053
52675 H95 153.562 155.975 140.375 H 0 **** 0.053
52676 H96 153.06 154.595 141.401 H 0 **** 0.053
52677 H97 155.823 161.094 147.186 H 0 **** 0.41
52678 H98 163.035 161.013 151.493 H 0 **** 0.41
52679 H99 152.44 157.304 143.916 H 0 **** 0.41
52680 H100 159.414 158.366 148.479 H 0 **** 0.053
52681 H101 162.542 158.952 150.707 H 0 **** 0.053
52682 H102 155.429 153.736 141.393 H 0 **** 0.053
52683 C1 132.778 180.833 155.458 C.ar 0 **** 0.042
52684 C2 134.09 180.401 155.41 C.ar 0 **** -0.1268
52685 C3 134.916 180.524 156.515 C.ar 0 **** 0
52686 C4 134.447 181.087 157.703 C.ar 0 **** 0
52687 C5 133.114 181.509 157.745 C.ar 0 **** -0.1268
52688 C6 132.284 181.402 156.64 C.ar 0 **** 0
52689 C7 135.55 181.074 158.652 C.ar 0 **** 0
52690 C8 136.638 180.496 158.023 C.ar 0 **** 0
52691 C9 136.349 180.097 156.616 C.3 0 **** -0.106
52692 C10 137.837 180.339 158.71 C.ar 0 **** 0
52693 C11 137.959 180.761 160.05 C.ar 0 **** 0
52694 C12 136.81 181.355 160.642 C.ar 0 **** 0
52695 C13 135.608 181.526 159.947 C.ar 0 **** 0
52696 C14 134.423 182.158 160.62 C.3 0 **** -0.106
52697 C15 134.869 183.195 161.651 C.3 0 **** -0.106
52698 C16 135.692 182.481 162.689 C.3 0 **** -0.106
52699 C17 136.921 181.829 162.091 C.ar 0 **** 0
52700 C18 138.05 181.665 162.828 C.ar 0 **** 0
52701 C19 139.154 181.068 162.286 C.ar 0 **** 0
52702 C20 139.187 180.594 160.78 C.ar 0 **** 0
52703 C21 140.31 180.034 160.049 C.ar 0 **** 0
52704 C22 140.085 179.615 158.733 C.ar 0 **** 0
52705 C23 138.917 179.756 158.067 C.ar 0 **** 0.042
52706 C24 140.389 180.865 163.152 C.3 0 **** -0.106
52707 C25 140.222 181.128 164.677 C.ar 0 **** 0
52708 C26 139.098 181.756 165.155 C.ar 0 **** 0
52709 C27 137.978 182.181 164.262 C.3 0 **** -0.106
52710 C28 138.971 182.04 166.514 C.ar 0 **** 0.042
52711 C29 139.962 181.721 167.426 C.ar 0 **** 0
52712 C30 141.084 181.077 166.926 C.ar 0 **** 0
52713 C31 141.228 180.779 165.574 C.ar 0 **** 0
52714 C32 142.248 180.665 167.842 C.ar 0 **** 0
52715 C33 142.042 181.025 169.317 C.3 0 **** -0.106
52716 C34 141.197 182.284 169.502 C.3 0 **** -0.106
52717 C35 139.818 182.033 168.896 C.3 0 **** -0.106
52718 C36 142.495 180.072 165.136 C.ar 0 **** -0.1268
52719 C37 143.455 179.762 166.047 C.ar 0 **** 0.0265
52720 C38 143.35 180.046 167.353 C.ar 0 **** -0.1268
52721 C39 141.231 179.001 158.019 C.3 0 **** -0.106
52722 C40 142.245 179.157 159.104 C.ar 0 **** 0
52723 C41 141.727 179.741 160.262 C.ar 0 **** 0
52724 C42 142.657 179.954 161.301 C.ar 0 **** -0.1268
52725 C43 144.006 179.559 161.187 C.ar 0 **** 0
52726 C44 144.488 178.952 160.007 C.ar 0 **** 0
52727 C45 143.584 178.763 158.95 C.ar 0 **** 0
52728 C46 144.053 178.188 157.748 C.ar 0 **** -0.1268
52729 C47 145.373 177.799 157.573 C.ar 0 **** 0
52730 C48 146.247 177.998 158.625 C.ar 0 **** -0.1268
52731 C49 145.841 178.566 159.844 C.ar 0 **** 0
52732 C50 146.732 178.778 160.912 C.ar 0 **** 0.042
52733 C51 146.29 179.363 162.083 C.ar 0 **** -0.1268
52734 C52 144.961 179.755 162.223 C.ar 0 **** -0.1268
52735 O53 131.955 180.712 154.364 O.3 0 **** -0.452
52736 C54 130.838 181.867 156.717 C.3 0 **** -0.159
52737 O55 138.821 179.334 156.794 O.3 0 **** -0.452
52738 C56 145.738 177.201 156.218 C.3 0 **** -0.106
52739 C57 147.163 176.639 156.178 C.3 0 **** -0.159
52740 O58 144.564 179.141 165.61 O.3 0 **** -0.4365
52741 O59 137.861 182.657 167.024 O.3 0 **** -0.452
52742 O60 148.039 178.451 160.888 O.3 0 **** -0.452
52743 H61 134.519 179.94 154.491 H 0 **** 0.1268
52744 H62 132.64 181.936 158.639 H 0 **** 0.1268
52745 H63 136.959 180.638 155.87 H 0 **** 0.053
52746 H64 136.431 179.009 156.439 H 0 **** 0.053
52747 H65 133.787 182.678 159.909 H 0 **** 0.053
52748 H66 133.809 181.388 161.136 H 0 **** 0.053
52749 H67 135.446 184.014 161.156 H 0 **** 0.053
52750 H68 133.971 183.691 162.124 H 0 **** 0.053
52751 H69 135.969 183.207 163.463 H 0 **** 0.053
52752 H70 135.062 181.717 163.177 H 0 **** 0.053
52753 H71 140.725 179.814 163.029 H 0 **** 0.053
52754 H72 137.045 181.804 164.692 H 0 **** 0.053
52755 H73 141.547 180.172 169.824 H 0 **** 0.053
52756 H74 143.035 181.134 169.774 H 0 **** 0.053
52757 H75 141.107 182.521 170.57 H 0 **** 0.053
52758 H76 141.683 183.145 169.021 H 0 **** 0.053
52759 H77 139.334 181.184 169.398 H 0 **** 0.053
52760 H78 139.18 182.898 169.037 H 0 **** 0.053
52761 H79 142.593 179.82 164.097 H 0 **** 0.1268
52762 H80 144.124 179.786 168.057 H 0 **** 0.1268
52763 H81 141.073 177.938 157.777 H 0 **** 0.053
52764 H82 141.533 179.558 157.118 H 0 **** 0.053
52765 H83 142.44 180.446 162.237 H 0 **** 0.1268
52766 H84 143.353 178.033 156.908 H 0 **** 0.1268
52767 H85 147.284 177.699 158.49 H 0 **** 0.1268
52768 H86 146.972 179.546 162.929 H 0 **** 0.1268
52769 H87 144.62 180.266 163.167 H 0 **** 0.1268
52770 H88 132.451 180.311 153.664 H 0 **** 0.41
52771 H89 130.5 182.258 155.75 H 0 **** 0.053
52772 H90 130.704 182.672 157.452 H 0 **** 0.053
52773 H91 130.176 181.03 156.992 H 0 **** 0.053
52774 H92 139.644 178.959 156.511 H 0 **** 0.41
52775 H93 145.04 176.394 155.973 H 0 **** 0.053
52776 H94 147.395 176.203 155.186 H 0 **** 0.053
52777 H95 147.309 175.838 156.928 H 0 **** 0.053
52778 H96 147.918 177.426 156.364 H 0 **** 0.053
52779 H97 144.487 178.917 164.696 H 0 **** 0.41
52780 H98 137.251 182.852 166.331 H 0 **** 0.41
52781 H99 148.253 178.073 160.044 H 0 **** 0.41
52782 H100 141.142 181.598 162.799 H 0 **** 0.053
52783 H101 137.941 183.276 164.222 H 0 **** 0.053
52784 H102 145.639 177.965 155.439 H 0 **** 0.053
52785 C1 119.307 116.142 119.233 C.ar 0 **** 0.042
52786 C2 118.876 114.836 119.092 C.ar 0 **** -0.1268
52787 C3 119.084 114.145 117.91 C.ar 0 **** 0
52788 C4 119.732 114.749 116.831 C.ar 0 **** 0
52789 C5 120.175 116.066 116.987 C.ar 0 **** -0.1268
52790 C6 119.959 116.77 118.163 C.ar 0 **** 0
52791 C7 119.785 113.768 115.757 C.ar 0 **** 0
52792 C8 119.187 112.608 116.217 C.ar 0 **** 0
52793 C9 118.683 112.732 117.614 C.3 0 **** -0.106
52794 C10 119.113 111.489 115.394 C.ar 0 **** 0
52795 C11 119.644 111.52 114.088 C.ar 0 **** 0
52796 C12 120.238 112.741 113.667 C.ar 0 **** 0
52797 C13 120.301 113.871 114.49 C.ar 0 **** 0
52798 C14 120.942 115.138 113.996 C.3 0 **** -0.106
52799 C15 120.75 115.294 112.487 C.3 0 **** -0.106
52800 C16 121.415 114.121 111.819 C.3 0 **** -0.106
52801 C17 120.812 112.802 112.252 C.ar 0 **** 0
52802 C18 120.808 111.732 111.417 C.ar 0 **** 0
52803 C19 120.27 110.54 111.815 C.ar 0 **** 0
52804 C20 119.587 110.368 113.228 C.ar 0 **** 0
52805 C21 118.898 109.199 113.746 C.ar 0 **** 0
52806 C22 118.432 109.252 115.064 C.ar 0 **** 0
52807 C23 118.515 110.334 115.87 C.ar 0 **** 0.042
52808 C24 120.317 109.349 110.869 C.3 0 **** -0.106
52809 C25 121.203 109.504 109.598 C.ar 0 **** 0
52810 C26 121.693 110.735 109.238 C.ar 0 **** 0
52811 C27 121.439 111.965 110.047 C.3 0 **** -0.106
52812 C28 122.442 110.883 108.072 C.ar 0 **** 0.042
52813 C29 122.71 109.817 107.231 C.ar 0 **** 0
52814 C30 122.218 108.58 107.618 C.ar 0 **** 0
52815 C31 121.472 108.409 108.781 C.ar 0 **** 0
52816 C32 122.458 107.32 106.77 C.ar 0 **** 0
52817 C33 123.274 107.567 105.498 C.3 0 **** -0.106
52818 C34 123.064 108.968 104.927 C.3 0 **** -0.106
52819 C35 123.522 109.987 105.969 C.3 0 **** -0.106
52820 C36 120.983 107.013 109.109 C.ar 0 **** -0.1268
52821 C37 121.263 105.977 108.275 C.ar 0 **** 0.0265
52822 C38 121.97 106.111 107.144 C.ar 0 **** -0.1268
52823 C39 117.774 108.032 115.593 C.3 0 **** -0.106
52824 C40 117.857 107.209 114.348 C.ar 0 **** 0
52825 C41 118.497 107.867 113.296 C.ar 0 **** 0
52826 C42 118.558 107.15 112.082 C.ar 0 **** -0.1268
52827 C43 118.047 105.841 111.962 C.ar 0 **** 0
52828 C44 117.424 105.202 113.055 C.ar 0 **** 0
52829 C45 117.324 105.913 114.261 C.ar 0 **** 0
52830 C46 116.676 105.304 115.357 C.ar 0 **** -0.1268
52831 C47 116.136 104.028 115.29 C.ar 0 **** 0
52832 C48 116.243 103.346 114.092 C.ar 0 **** -0.1268
52833 C49 116.875 103.899 112.966 C.ar 0 **** 0
52834 C50 116.977 103.21 111.744 C.ar 0 **** 0.042
52835 C51 117.585 103.806 110.657 C.ar 0 **** -0.1268
52836 C52 118.104 105.095 110.752 C.ar 0 **** -0.1268
52837 O53 119.105 116.827 120.407 O.3 0 **** -0.452
52838 C54 120.454 118.201 118.304 C.3 0 **** -0.159
52839 O55 118.016 110.276 117.117 O.3 0 **** -0.452
52840 C56 115.458 103.502 116.55 C.3 0 **** -0.106
52841 C57 115.053 102.028 116.44 C.3 0 **** -0.159
52842 O58 120.803 104.759 108.605 O.3 0 **** -0.4365
52843 O59 122.951 112.094 107.687 O.3 0 **** -0.452
52844 O60 116.506 101.965 111.533 O.3 0 **** -0.452
52845 H61 118.355 114.301 119.92 H 0 **** 0.1268
52846 H62 120.719 116.62 116.211 H 0 **** 0.1268
52847 H63 117.587 112.622 117.7 H 0 **** 0.053
52848 H64 119.177 112.044 118.325 H 0 **** 0.053
52849 H65 120.503 116.017 114.459 H 0 **** 0.053
52850 H66 122.032 115.136 114.215 H 0 **** 0.053
52851 H67 119.662 115.351 112.236 H 0 **** 0.053
52852 H68 121.202 116.267 112.132 H 0 **** 0.053
52853 H69 121.333 114.255 110.733 H 0 **** 0.053
52854 H70 122.492 114.139 112.062 H 0 **** 0.053
52855 H71 120.696 108.474 111.436 H 0 **** 0.053
52856 H72 122.401 112.458 110.218 H 0 **** 0.053
52857 H73 124.348 107.423 105.732 H 0 **** 0.053
52858 H74 122.999 106.791 104.77 H 0 **** 0.053
52859 H75 123.639 109.086 104.001 H 0 **** 0.053
52860 H76 122.006 109.124 104.671 H 0 **** 0.053
52861 H77 124.585 109.836 106.203 H 0 **** 0.053
52862 H78 123.415 110.995 105.585 H 0 **** 0.053
52863 H79 120.429 106.879 110.018 H 0 **** 0.1268
52864 H80 122.182 105.269 106.503 H 0 **** 0.1268
52865 H81 118.332 107.558 116.415 H 0 **** 0.053
52866 H82 116.724 108.194 115.886 H 0 **** 0.053
52867 H83 118.963 107.532 111.156 H 0 **** 0.1268
52868 H84 116.588 105.854 116.312 H 0 **** 0.1268
52869 H85 115.815 102.348 114.034 H 0 **** 0.1268
52870 H86 117.667 103.29 109.687 H 0 **** 0.1268
52871 H87 118.564 105.586 109.849 H 0 **** 0.1268
52872 H88 118.638 116.253 121 H 0 **** 0.41
52873 H89 119.781 118.787 118.942 H 0 **** 0.053
52874 H90 120.504 118.716 117.335 H 0 **** 0.053
52875 H91 121.456 118.221 118.762 H 0 **** 0.053
52876 H92 117.637 109.424 117.283 H 0 **** 0.41
52877 H93 116.133 103.614 117.405 H 0 **** 0.053
52878 H94 114.573 101.672 117.373 H 0 **** 0.053
52879 H95 115.929 101.375 116.257 H 0 **** 0.053
52880 H96 114.325 101.863 115.624 H 0 **** 0.053
52881 H97 120.391 104.769 109.454 H 0 **** 0.41
52882 H98 122.709 112.761 108.309 H 0 **** 0.41
52883 H99 116.077 101.653 112.32 H 0 **** 0.41
52884 H100 119.281 109.203 110.499 H 0 **** 0.053
52885 H101 120.782 112.64 109.487 H 0 **** 0.053
52886 H102 114.563 104.099 116.762 H 0 **** 0.053
52887 C1 96.0297 111.389 129.625 C.ar 0 **** 0.042
52888 C2 96.2744 111.847 128.344 C.ar 0 **** -0.1268
52889 C3 97.508 111.649 127.746 C.ar 0 **** 0
52890 C4 98.5343 110.985 128.419 C.ar 0 **** 0
52891 C5 98.2723 110.515 129.71 C.ar 0 **** -0.1268
52892 C6 97.0447 110.719 130.322 C.ar 0 **** 0
52893 C7 99.6831 110.95 127.527 C.ar 0 **** 0
52894 C8 99.3184 111.574 126.347 C.ar 0 **** 0
52895 C9 97.9166 112.079 126.37 C.3 0 **** -0.106
52896 C10 100.228 111.669 125.3 C.ar 0 **** 0
52897 C11 101.527 111.133 125.424 C.ar 0 **** 0
52898 C12 101.849 110.512 126.662 C.ar 0 **** 0
52899 C13 100.938 110.428 127.72 C.ar 0 **** 0
52900 C14 101.327 109.757 129.008 C.3 0 **** -0.106
52901 C15 102.819 109.94 129.289 C.3 0 **** -0.106
52902 C16 103.578 109.298 128.159 C.3 0 **** -0.106
52903 C17 103.252 109.931 126.823 C.ar 0 **** 0
52904 C18 104.171 109.956 125.823 C.ar 0 **** 0
52905 C19 103.871 110.521 124.616 C.ar 0 **** 0
52906 C20 102.477 111.212 124.346 C.ar 0 **** 0
52907 C21 102.055 111.928 123.155 C.ar 0 **** 0
52908 C22 100.738 112.397 123.112 C.ar 0 **** 0
52909 C23 99.8477 112.294 124.124 C.ar 0 **** 0.042
52910 C24 104.909 110.497 123.504 C.3 0 **** -0.106
52911 C25 106.161 109.603 123.741 C.ar 0 **** 0
52912 C26 106.422 109.085 124.986 C.ar 0 **** 0
52913 C27 105.517 109.315 126.152 C.3 0 **** -0.106
52914 C28 107.57 108.329 125.211 C.ar 0 **** 0.042
52915 C29 108.494 108.082 124.21 C.ar 0 **** 0
52916 C30 108.209 108.602 122.958 C.ar 0 **** 0
52917 C31 107.065 109.356 122.71 C.ar 0 **** 0
52918 C32 109.155 108.388 121.765 C.ar 0 **** 0
52919 C33 110.402 107.562 122.095 C.3 0 **** -0.106
52920 C34 110.858 107.739 123.542 C.3 0 **** -0.106
52921 C35 109.737 107.262 124.462 C.3 0 **** -0.106
52922 C36 106.85 109.877 121.304 C.ar 0 **** -0.1268
52923 C37 107.766 109.62 120.333 C.ar 0 **** 0.0265
52924 C38 108.881 108.905 120.541 C.ar 0 **** -0.1268
52925 C39 100.31 113.083 121.868 C.3 0 **** -0.106
52926 C40 101.617 113.014 121.147 C.ar 0 **** 0
52927 C41 102.612 112.356 121.872 C.ar 0 **** 0
52928 C42 103.879 112.307 121.255 C.ar 0 **** -0.1268
52929 C43 104.105 112.846 119.971 C.ar 0 **** 0
52930 C44 103.068 113.487 119.26 C.ar 0 **** 0
52931 C45 101.808 113.575 119.874 C.ar 0 **** 0
52932 C46 100.766 114.241 119.193 C.ar 0 **** -0.1268
52933 C47 100.936 114.807 117.939 C.ar 0 **** 0
52934 C48 102.185 114.712 117.354 C.ar 0 **** -0.1268
52935 C49 103.262 114.065 117.982 C.ar 0 **** 0
52936 C50 104.535 113.977 117.392 C.ar 0 **** 0.042
52937 C51 105.57 113.35 118.059 C.ar 0 **** -0.1268
52938 C52 105.37 112.802 119.323 C.ar 0 **** -0.1268
52939 O53 94.8062 111.581 130.222 O.3 0 **** -0.452
52940 C54 96.7884 110.193 131.725 C.3 0 **** -0.159
52941 O55 98.6105 112.799 123.977 O.3 0 **** -0.452
52942 C56 99.7231 115.501 117.329 C.3 0 **** -0.106
52943 C57 99.952 115.937 115.877 C.3 0 **** -0.159
52944 O58 107.537 110.11 119.103 O.3 0 **** -0.4365
52945 O59 107.856 107.794 126.437 O.3 0 **** -0.452
52946 O60 104.849 114.48 116.182 O.3 0 **** -0.452
52947 H61 95.4924 112.381 127.756 H 0 **** 0.1268
52948 H62 99.0001 109.954 130.312 H 0 **** 0.1268
52949 H63 97.8418 113.178 126.278 H 0 **** 0.053
52950 H64 97.2626 111.602 125.617 H 0 **** 0.053
52951 H65 100.795 110.178 129.857 H 0 **** 0.053
52952 H66 101.106 108.668 128.965 H 0 **** 0.053
52953 H67 103.066 111.025 129.39 H 0 **** 0.053
52954 H68 103.094 109.465 130.277 H 0 **** 0.053
52955 H69 104.649 109.374 128.381 H 0 **** 0.053
52956 H70 103.332 108.222 128.134 H 0 **** 0.053
52957 H71 104.413 110.138 122.578 H 0 **** 0.053
52958 H72 105.304 108.343 126.609 H 0 **** 0.053
52959 H73 110.177 106.492 121.909 H 0 **** 0.053
52960 H74 111.189 107.85 121.385 H 0 **** 0.053
52961 H75 111.771 107.157 123.72 H 0 **** 0.053
52962 H76 111.103 108.792 123.74 H 0 **** 0.053
52963 H77 109.514 106.203 124.27 H 0 **** 0.053
52964 H78 110.039 107.344 125.5 H 0 **** 0.053
52965 H79 105.955 110.436 121.109 H 0 **** 0.1268
52966 H80 109.587 108.71 119.75 H 0 **** 0.1268
52967 H81 99.5273 112.538 121.318 H 0 **** 0.053
52968 H82 100.007 114.13 122.029 H 0 **** 0.053
52969 H83 104.77 111.89 121.7 H 0 **** 0.1268
52970 H84 99.7694 114.319 119.666 H 0 **** 0.1268
52971 H85 102.324 115.16 116.373 H 0 **** 0.1268
52972 H86 106.578 113.275 117.619 H 0 **** 0.1268
52973 H87 106.23 112.327 119.874 H 0 **** 0.1268
52974 H88 94.252 112.049 129.611 H 0 **** 0.41
52975 H89 96.1067 110.854 132.273 H 0 **** 0.053
52976 H90 97.7134 110.128 132.315 H 0 **** 0.053
52977 H91 96.329 109.192 131.686 H 0 **** 0.053
52978 H92 98.5134 113.194 123.122 H 0 **** 0.41
52979 H93 98.8614 114.826 117.357 H 0 **** 0.053
52980 H94 99.0512 116.428 115.458 H 0 **** 0.053
52981 H95 100.186 115.076 115.223 H 0 **** 0.053
52982 H96 100.78 116.666 115.794 H 0 **** 0.053
52983 H97 106.685 110.512 119.049 H 0 **** 0.41
52984 H98 107.182 108.021 127.057 H 0 **** 0.41
52985 H99 104.084 114.897 115.807 H 0 **** 0.41
52986 H100 105.291 111.534 123.411 H 0 **** 0.053
52987 H101 106.022 109.955 126.884 H 0 **** 0.053
52988 H102 99.4653 116.383 117.926 H 0 **** 0.053
52989 C1 125.55 175.753 164.508 C.ar 0 **** 0.042
52990 C2 126.693 176.047 165.229 C.ar 0 **** -0.1268
52991 C3 127.159 175.177 166.201 C.ar 0 **** 0
52992 C4 126.49 173.984 166.478 C.ar 0 **** 0
52993 C5 125.345 173.689 165.732 C.ar 0 **** -0.1268
52994 C6 124.863 174.559 164.765 C.ar 0 **** 0
52995 C7 127.224 173.314 167.54 C.ar 0 **** 0
52996 C8 128.313 174.105 167.862 C.ar 0 **** 0
52997 C9 128.378 175.356 167.055 C.3 0 **** -0.106
52998 C10 129.206 173.694 168.846 C.ar 0 **** 0
52999 C11 129.017 172.472 169.524 C.ar 0 **** 0
53000 C12 127.877 171.705 169.157 C.ar 0 **** 0
53001 C13 126.971 172.125 168.177 C.ar 0 **** 0
53002 C14 125.783 171.275 167.825 C.3 0 **** -0.106
53003 C15 125.291 170.494 169.044 C.3 0 **** -0.106
53004 C16 126.412 169.597 169.493 C.3 0 **** -0.106
53005 C17 127.647 170.381 169.884 C.ar 0 **** 0
53006 C18 128.505 169.905 170.822 C.ar 0 **** 0
53007 C19 129.623 170.612 171.166 C.ar 0 **** 0
53008 C20 129.938 172.025 170.534 C.ar 0 **** 0
53009 C21 131.029 172.924 170.867 C.ar 0 **** 0
53010 C22 131.153 174.099 170.119 C.ar 0 **** 0
53011 C23 130.294 174.495 169.154 C.ar 0 **** 0.042
53012 C24 130.584 170.032 172.193 C.3 0 **** -0.106
53013 C25 130.354 168.548 172.601 C.ar 0 **** 0
53014 C26 129.196 167.9 172.246 C.ar 0 **** 0
53015 C27 128.129 168.558 171.433 C.3 0 **** -0.106
53016 C28 128.966 166.588 172.657 C.ar 0 **** 0.042
53017 C29 129.871 165.894 173.44 C.ar 0 **** 0
53018 C30 131.039 166.56 173.779 C.ar 0 **** 0
53019 C31 131.291 167.869 173.375 C.ar 0 **** 0
53020 C32 132.124 165.892 174.638 C.ar 0 **** 0
53021 C33 131.791 164.458 175.063 C.3 0 **** -0.106
53022 C34 130.291 164.227 175.228 C.3 0 **** -0.106
53023 C35 129.615 164.473 173.881 C.3 0 **** -0.106
53024 C36 132.601 168.501 173.801 C.ar 0 **** -0.1268
53025 C37 133.48 167.802 174.566 C.ar 0 **** 0.0265
53026 C38 133.263 166.546 174.978 C.ar 0 **** -0.1268
53027 C39 132.302 174.982 170.441 C.3 0 **** -0.106
53028 C40 132.856 174.178 171.573 C.ar 0 **** 0
53029 C41 132.138 173.006 171.818 C.ar 0 **** 0
53030 C42 132.593 172.235 172.908 C.ar 0 **** -0.1268
53031 C43 133.724 172.606 173.664 C.ar 0 **** 0
53032 C44 134.435 173.79 173.373 C.ar 0 **** 0
53033 C45 133.977 174.587 172.312 C.ar 0 **** 0
53034 C46 134.655 175.791 172.025 C.ar 0 **** -0.1268
53035 C47 135.76 176.216 172.748 C.ar 0 **** 0
53036 C48 136.193 175.418 173.79 C.ar 0 **** -0.1268
53037 C49 135.559 174.211 174.126 C.ar 0 **** 0
53038 C50 135.991 173.403 175.193 C.ar 0 **** 0.042
53039 C51 135.321 172.235 175.499 C.ar 0 **** -0.1268
53040 C52 134.207 171.842 174.762 C.ar 0 **** -0.1268
53041 O53 125.083 176.617 163.546 O.3 0 **** -0.452
53042 C54 123.616 174.208 163.967 C.3 0 **** -0.159
53043 O55 130.504 175.656 168.51 O.3 0 **** -0.452
53044 C56 136.386 177.542 172.329 C.3 0 **** -0.106
53045 C57 137.699 177.841 173.062 C.3 0 **** -0.159
53046 O58 134.624 168.407 174.924 O.3 0 **** -0.4365
53047 O59 127.827 165.912 172.314 O.3 0 **** -0.452
53048 O60 137.046 173.688 175.982 O.3 0 **** -0.452
53049 H61 127.273 176.981 165.049 H 0 **** 0.1268
53050 H62 124.765 172.763 165.85 H 0 **** 0.1268
53051 H63 128.285 176.276 167.66 H 0 **** 0.053
53052 H64 129.278 175.425 166.417 H 0 **** 0.053
53053 H65 124.946 171.877 167.482 H 0 **** 0.053
53054 H66 126.043 170.551 167.022 H 0 **** 0.053
53055 H67 124.971 171.195 169.854 H 0 **** 0.053
53056 H68 124.375 169.888 168.779 H 0 **** 0.053
53057 H69 126.049 168.99 170.332 H 0 **** 0.053
53058 H70 126.656 168.897 168.675 H 0 **** 0.053
53059 H71 131.613 170.11 171.783 H 0 **** 0.053
53060 H72 127.88 167.889 170.603 H 0 **** 0.053
53061 H73 132.189 163.76 174.298 H 0 **** 0.053
53062 H74 132.336 164.252 175.995 H 0 **** 0.053
53063 H75 130.105 163.2 175.566 H 0 **** 0.053
53064 H76 129.882 164.898 175.997 H 0 **** 0.053
53065 H77 130.015 163.784 173.126 H 0 **** 0.053
53066 H78 128.549 164.288 173.954 H 0 **** 0.053
53067 H79 132.805 169.501 173.467 H 0 **** 0.1268
53068 H80 133.982 166.012 175.579 H 0 **** 0.1268
53069 H81 133.032 175.062 169.621 H 0 **** 0.053
53070 H82 131.999 175.984 170.784 H 0 **** 0.053
53071 H83 132.12 171.334 173.271 H 0 **** 0.1268
53072 H84 134.304 176.429 171.193 H 0 **** 0.1268
53073 H85 137.055 175.75 174.362 H 0 **** 0.1268
53074 H86 135.638 171.59 176.335 H 0 **** 0.1268
53075 H87 133.645 170.908 175.045 H 0 **** 0.1268
53076 H88 125.684 177.346 163.491 H 0 **** 0.41
53077 H89 123.05 175.11 163.707 H 0 **** 0.053
53078 H90 122.938 173.555 164.533 H 0 **** 0.053
53079 H91 123.887 173.698 163.028 H 0 **** 0.053
53080 H92 131.282 176.081 168.844 H 0 **** 0.41
53081 H93 136.584 177.531 171.253 H 0 **** 0.053
53082 H94 138.134 178.804 172.729 H 0 **** 0.053
53083 H95 138.459 177.059 172.873 H 0 **** 0.053
53084 H96 137.549 177.919 174.155 H 0 **** 0.053
53085 H97 134.711 169.25 174.507 H 0 **** 0.41
53086 H98 127.265 166.463 171.794 H 0 **** 0.41
53087 H99 137.435 174.507 175.703 H 0 **** 0.41
53088 H100 130.447 170.626 173.119 H 0 **** 0.053
53089 H101 127.24 168.709 172.055 H 0 **** 0.053
53090 H102 135.68 178.359 172.522 H 0 **** 0.053
53091 C1 114.009 167.235 171.889 C.ar 0 **** 0.042
53092 C2 113.095 167.521 170.891 C.ar 0 **** -0.1268
53093 C3 113.497 168.146 169.722 C.ar 0 **** 0
53094 C4 114.831 168.504 169.52 C.ar 0 **** 0
53095 C5 115.749 168.197 170.528 C.ar 0 **** -0.1268
53096 C6 115.355 167.583 171.708 C.ar 0 **** 0
53097 C7 114.914 169.138 168.213 C.ar 0 **** 0
53098 C8 113.645 169.132 167.662 C.ar 0 **** 0
53099 C9 112.628 168.512 168.558 C.3 0 **** -0.106
53100 C10 113.434 169.666 166.395 C.ar 0 **** 0
53101 C11 114.503 170.216 165.658 C.ar 0 **** 0
53102 C12 115.783 170.203 166.279 C.ar 0 **** 0
53103 C13 115.993 169.677 167.558 C.ar 0 **** 0
53104 C14 117.367 169.685 168.167 C.3 0 **** -0.106
53105 C15 118.169 170.896 167.691 C.3 0 **** -0.106
53106 C16 118.302 170.797 166.196 C.3 0 **** -0.106
53107 C17 116.956 170.801 165.504 C.ar 0 **** 0
53108 C18 116.822 171.298 164.247 C.ar 0 **** 0
53109 C19 115.607 171.292 163.622 C.ar 0 **** 0
53110 C20 114.305 170.761 164.342 C.ar 0 **** 0
53111 C21 112.942 170.778 163.84 C.ar 0 **** 0
53112 C22 111.953 170.182 164.629 C.ar 0 **** 0
53113 C23 112.158 169.651 165.855 C.ar 0 **** 0.042
53114 C24 115.499 171.82 162.199 C.3 0 **** -0.106
53115 C25 116.838 172.105 161.459 C.ar 0 **** 0
53116 C26 118.025 172.122 162.15 C.ar 0 **** 0
53117 C27 118.101 171.838 163.615 C.3 0 **** -0.106
53118 C28 119.218 172.429 161.498 C.ar 0 **** 0.042
53119 C29 119.259 172.74 160.15 C.ar 0 **** 0
53120 C30 118.053 172.706 159.467 C.ar 0 **** 0
53121 C31 116.851 172.397 160.098 C.ar 0 **** 0
53122 C32 117.971 173.025 157.965 C.ar 0 **** 0
53123 C33 119.32 173.368 157.324 C.3 0 **** -0.106
53124 C34 120.282 174.04 158.302 C.3 0 **** -0.106
53125 C35 120.555 173.072 159.451 C.3 0 **** -0.106
53126 C36 115.591 172.389 159.256 C.ar 0 **** -0.1268
53127 C37 115.651 172.691 157.932 C.ar 0 **** 0.0265
53128 C38 116.791 173.001 157.298 C.ar 0 **** -0.1268
53129 C39 110.575 170.165 164.079 C.3 0 **** -0.106
53130 C40 110.858 170.913 162.817 C.ar 0 **** 0
53131 C41 112.203 171.261 162.674 C.ar 0 **** 0
53132 C42 112.514 172.011 161.521 C.ar 0 **** -0.1268
53133 C43 111.537 172.341 160.559 C.ar 0 **** 0
53134 C44 110.191 171.953 160.729 C.ar 0 **** 0
53135 C45 109.856 171.235 161.888 C.ar 0 **** 0
53136 C46 108.509 170.867 162.093 C.ar 0 **** -0.1268
53137 C47 107.503 171.182 161.192 C.ar 0 **** 0
53138 C48 107.854 171.892 160.059 C.ar 0 **** -0.1268
53139 C49 109.176 172.289 159.8 C.ar 0 **** 0
53140 C50 109.533 173.021 158.653 C.ar 0 **** 0.042
53141 C51 110.843 173.409 158.454 C.ar 0 **** -0.1268
53142 C52 111.828 173.088 159.384 C.ar 0 **** -0.1268
53143 O53 113.615 166.615 173.05 O.3 0 **** -0.452
53144 C54 116.379 167.259 172.785 C.3 0 **** -0.159
53145 O55 111.126 169.119 166.533 O.3 0 **** -0.452
53146 C56 106.093 170.726 161.549 C.3 0 **** -0.106
53147 C57 105.085 170.959 160.418 C.3 0 **** -0.159
53148 O58 114.507 172.679 157.229 O.3 0 **** -0.4365
53149 O59 120.418 172.446 162.154 O.3 0 **** -0.452
53150 O60 108.665 173.399 157.693 O.3 0 **** -0.452
53151 H61 112.018 167.255 170.995 H 0 **** 0.1268
53152 H62 116.825 168.408 170.455 H 0 **** 0.1268
53153 H63 111.837 169.214 168.88 H 0 **** 0.053
53154 H64 112.162 167.603 168.135 H 0 **** 0.053
53155 H65 117.326 169.744 169.251 H 0 **** 0.053
53156 H66 117.923 168.762 167.891 H 0 **** 0.053
53157 H67 117.661 171.841 168.002 H 0 **** 0.053
53158 H68 119.185 170.908 168.185 H 0 **** 0.053
53159 H69 118.926 171.631 165.851 H 0 **** 0.053
53160 H70 118.847 169.868 165.95 H 0 **** 0.053
53161 H71 114.936 171.076 161.597 H 0 **** 0.053
53162 H72 118.878 171.083 163.77 H 0 **** 0.053
53163 H73 119.778 172.433 156.942 H 0 **** 0.053
53164 H74 119.121 174.006 156.452 H 0 **** 0.053
53165 H75 121.217 174.297 157.79 H 0 **** 0.053
53166 H76 119.851 174.979 158.679 H 0 **** 0.053
53167 H77 121.004 172.146 159.066 H 0 **** 0.053
53168 H78 121.26 173.506 160.151 H 0 **** 0.053
53169 H79 114.669 172.125 159.738 H 0 **** 0.1268
53170 H80 116.811 173.23 156.244 H 0 **** 0.1268
53171 H81 110.205 169.151 163.862 H 0 **** 0.053
53172 H82 109.85 170.712 164.703 H 0 **** 0.053
53173 H83 113.49 172.411 161.286 H 0 **** 0.1268
53174 H84 108.232 170.302 163.002 H 0 **** 0.1268
53175 H85 107.068 172.146 159.352 H 0 **** 0.1268
53176 H86 111.144 173.989 157.566 H 0 **** 0.1268
53177 H87 112.886 173.442 159.231 H 0 **** 0.1268
53178 H88 112.683 166.449 172.994 H 0 **** 0.41
53179 H89 115.934 167.334 173.783 H 0 **** 0.053
53180 H90 117.232 167.952 172.762 H 0 **** 0.053
53181 H91 116.761 166.233 172.661 H 0 **** 0.053
53182 H92 110.327 169.19 166.029 H 0 **** 0.41
53183 H93 106.103 169.658 161.791 H 0 **** 0.053
53184 H94 104.074 170.608 160.703 H 0 **** 0.053
53185 H95 105.37 170.415 159.497 H 0 **** 0.053
53186 H96 104.992 172.032 160.168 H 0 **** 0.053
53187 H97 113.789 172.358 157.752 H 0 **** 0.41
53188 H98 120.295 172.241 163.067 H 0 **** 0.41
53189 H99 107.795 173.098 157.92 H 0 **** 0.41
53190 H100 114.977 172.797 162.268 H 0 **** 0.053
53191 H101 118.376 172.755 164.149 H 0 **** 0.053
53192 H102 105.75 171.258 162.444 H 0 **** 0.053
53193 C1 125.222 134.915 179.385 C.ar 0 **** 0.042
53194 C2 126.132 133.879 179.472 C.ar 0 **** -0.1268
53195 C3 126.422 133.097 178.365 C.ar 0 **** 0
53196 C4 125.803 133.334 177.137 C.ar 0 **** 0
53197 C5 124.894 134.394 177.056 C.ar 0 **** -0.1268
53198 C6 124.588 135.174 178.161 C.ar 0 **** 0
53199 C7 126.316 132.348 176.198 C.ar 0 **** 0
53200 C8 127.231 131.56 176.875 C.ar 0 **** 0
53201 C9 127.385 131.951 178.305 C.3 0 **** -0.106
53202 C10 127.895 130.536 176.208 C.ar 0 **** 0
53203 C11 127.65 130.29 174.841 C.ar 0 **** 0
53204 C12 126.694 131.125 174.201 C.ar 0 **** 0
53205 C13 126.015 132.146 174.875 C.ar 0 **** 0
53206 C14 125.015 133.002 174.15 C.3 0 **** -0.106
53207 C15 124.312 132.207 173.049 C.3 0 **** -0.106
53208 C16 125.362 131.756 172.071 C.3 0 **** -0.106
53209 C17 126.404 130.87 172.722 C.ar 0 **** 0
53210 C18 127.049 129.914 172.006 C.ar 0 **** 0
53211 C19 127.994 129.122 172.596 C.ar 0 **** 0
53212 C20 128.338 129.243 174.133 C.ar 0 **** 0
53213 C21 129.243 128.415 174.909 C.ar 0 **** 0
53214 C22 129.446 128.756 176.251 C.ar 0 **** 0
53215 C23 128.81 129.757 176.898 C.ar 0 **** 0.042
53216 C24 128.728 128.087 171.756 C.3 0 **** -0.106
53217 C25 128.525 128.172 170.214 C.ar 0 **** 0
53218 C26 127.54 128.968 169.685 C.ar 0 **** 0
53219 C27 126.648 129.81 170.537 C.3 0 **** -0.106
53220 C28 127.324 129.004 168.309 C.ar 0 **** 0.042
53221 C29 128.07 128.24 167.428 C.ar 0 **** 0
53222 C30 129.067 127.45 167.98 C.ar 0 **** 0
53223 C31 129.303 127.404 169.352 C.ar 0 **** 0
53224 C32 129.967 126.564 167.103 C.ar 0 **** 0
53225 C33 129.659 126.65 165.606 C.3 0 **** -0.106
53226 C34 128.185 126.932 165.324 C.3 0 **** -0.106
53227 C35 127.829 128.284 165.938 C.3 0 **** -0.106
53228 C36 130.42 126.508 169.848 C.ar 0 **** -0.1268
53229 C37 131.145 125.769 168.967 C.ar 0 **** 0.0265
53230 C38 130.937 125.785 167.643 C.ar 0 **** -0.1268
53231 C39 130.412 127.928 177.015 C.3 0 **** -0.106
53232 C40 130.744 126.96 175.927 C.ar 0 **** 0
53233 C41 130.085 127.233 174.727 C.ar 0 **** 0
53234 C42 130.328 126.318 173.682 C.ar 0 **** -0.1268
53235 C43 131.215 125.231 173.832 C.ar 0 **** 0
53236 C44 131.879 125 175.055 C.ar 0 **** 0
53237 C45 131.623 125.882 176.117 C.ar 0 **** 0
53238 C46 132.249 125.649 177.361 C.ar 0 **** -0.1268
53239 C47 133.11 124.583 177.574 C.ar 0 **** 0
53240 C48 133.35 123.727 176.515 C.ar 0 **** -0.1268
53241 C49 132.755 123.906 175.254 C.ar 0 **** 0
53242 C50 132.985 123.028 174.18 C.ar 0 **** 0.042
53243 C51 132.356 123.23 172.967 C.ar 0 **** -0.1268
53244 C52 131.483 124.3 172.791 C.ar 0 **** -0.1268
53245 O53 124.933 135.694 180.48 O.3 0 **** -0.452
53246 C54 123.597 136.321 178.042 C.3 0 **** -0.159
53247 O55 129.068 129.98 178.198 O.3 0 **** -0.452
53248 C56 133.7 124.451 178.974 C.3 0 **** -0.106
53249 C57 134.757 123.353 179.063 C.3 0 **** -0.159
53250 O58 132.121 124.985 169.455 O.3 0 **** -0.4365
53251 O59 126.356 129.792 167.748 O.3 0 **** -0.452
53252 O60 133.796 121.953 174.238 O.3 0 **** -0.452
53253 H61 126.66 133.646 180.425 H 0 **** 0.1268
53254 H62 124.378 134.683 176.131 H 0 **** 0.1268
53255 H63 127.079 131.16 179.013 H 0 **** 0.053
53256 H64 128.402 132.3 178.561 H 0 **** 0.053
53257 H65 124.238 133.365 174.817 H 0 **** 0.053
53258 H66 125.514 133.882 173.687 H 0 **** 0.053
53259 H67 123.755 131.343 173.487 H 0 **** 0.053
53260 H68 123.536 132.849 172.536 H 0 **** 0.053
53261 H69 124.86 131.234 171.247 H 0 **** 0.053
53262 H70 125.848 132.647 171.636 H 0 **** 0.053
53263 H71 129.815 128.189 171.956 H 0 **** 0.053
53264 H72 126.656 130.826 170.131 H 0 **** 0.053
53265 H73 130.279 127.454 165.161 H 0 **** 0.053
53266 H74 129.984 125.709 165.145 H 0 **** 0.053
53267 H75 128.006 126.946 164.242 H 0 **** 0.053
53268 H76 127.553 126.137 165.746 H 0 **** 0.053
53269 H77 128.451 129.075 165.497 H 0 **** 0.053
53270 H78 126.795 128.534 165.731 H 0 **** 0.053
53271 H79 130.619 126.494 170.902 H 0 **** 0.1268
53272 H80 131.534 125.194 166.966 H 0 **** 0.1268
53273 H81 131.307 128.486 177.333 H 0 **** 0.053
53274 H82 129.958 127.411 177.875 H 0 **** 0.053
53275 H83 129.857 126.346 172.71 H 0 **** 0.1268
53276 H84 132.057 126.335 178.206 H 0 **** 0.1268
53277 H85 134.023 122.89 176.677 H 0 **** 0.1268
53278 H86 132.517 122.553 172.112 H 0 **** 0.1268
53279 H87 130.947 124.435 171.808 H 0 **** 0.1268
53280 H88 125.449 135.381 181.21 H 0 **** 0.41
53281 H89 123.039 136.455 178.976 H 0 **** 0.053
53282 H90 122.857 136.144 177.249 H 0 **** 0.053
53283 H91 124.122 137.265 177.824 H 0 **** 0.053
53284 H92 129.723 129.372 178.513 H 0 **** 0.41
53285 H93 134.163 125.401 179.266 H 0 **** 0.053
53286 H94 135.205 123.301 180.074 H 0 **** 0.053
53287 H95 135.568 123.551 178.348 H 0 **** 0.053
53288 H96 134.348 122.354 178.834 H 0 **** 0.053
53289 H97 132.239 125.124 170.381 H 0 **** 0.41
53290 H98 125.891 130.264 168.419 H 0 **** 0.41
53291 H99 134.169 121.892 175.107 H 0 **** 0.41
53292 H100 128.328 127.098 172.059 H 0 **** 0.053
53293 H101 125.627 129.413 170.498 H 0 **** 0.053
53294 H102 132.903 124.238 179.696 H 0 **** 0.053
53295 C1 133.847 123.3 146.594 C.ar 0 **** 0.042
53296 C2 133.082 122.346 147.238 C.ar 0 **** -0.1268
53297 C3 133.135 121.017 146.85 C.ar 0 **** 0
53298 C4 133.959 120.608 145.801 C.ar 0 **** 0
53299 C5 134.739 121.578 145.165 C.ar 0 **** -0.1268
53300 C6 134.683 122.913 145.538 C.ar 0 **** 0
53301 C7 133.779 119.172 145.646 C.ar 0 **** 0
53302 C8 132.872 118.756 146.605 C.ar 0 **** 0
53303 C9 132.374 119.876 147.453 C.3 0 **** -0.106
53304 C10 132.523 117.413 146.697 C.ar 0 **** 0
53305 C11 133.087 116.461 145.822 C.ar 0 **** 0
53306 C12 134.006 116.948 144.853 C.ar 0 **** 0
53307 C13 134.347 118.301 144.75 C.ar 0 **** 0
53308 C14 135.326 118.763 143.708 C.3 0 **** -0.106
53309 C15 135.236 117.895 142.452 C.3 0 **** -0.106
53310 C16 135.578 116.484 142.848 C.3 0 **** -0.106
53311 C17 134.623 115.937 143.888 C.ar 0 **** 0
53312 C18 134.356 114.607 143.955 C.ar 0 **** 0
53313 C19 133.499 114.116 144.899 C.ar 0 **** 0
53314 C20 132.747 115.067 145.913 C.ar 0 **** 0
53315 C21 131.747 114.7 146.9 C.ar 0 **** 0
53316 C22 131.268 115.709 147.744 C.ar 0 **** 0
53317 C23 131.616 117.012 147.664 C.ar 0 **** 0.042
53318 C24 133.251 112.617 144.972 C.3 0 **** -0.106
53319 C25 134.19 111.714 144.119 C.ar 0 **** 0
53320 C26 135.009 112.267 143.166 C.ar 0 **** 0
53321 C27 135.073 113.74 142.924 C.3 0 **** -0.106
53322 C28 135.809 111.455 142.365 C.ar 0 **** 0.042
53323 C29 135.806 110.075 142.483 C.ar 0 **** 0
53324 C30 134.982 109.536 143.458 C.ar 0 **** 0
53325 C31 134.177 110.33 144.271 C.ar 0 **** 0
53326 C32 134.896 108.019 143.688 C.ar 0 **** 0
53327 C33 135.793 107.193 142.759 C.3 0 **** -0.106
53328 C34 135.993 107.853 141.396 C.3 0 **** -0.106
53329 C35 136.677 109.202 141.611 C.3 0 **** -0.106
53330 C36 133.313 109.637 145.305 C.ar 0 **** -0.1268
53331 C37 133.326 108.282 145.409 C.ar 0 **** 0.0265
53332 C38 134.082 107.49 144.635 C.ar 0 **** -0.1268
53333 C39 130.284 115.306 148.778 C.3 0 **** -0.106
53334 C40 130.181 113.864 148.402 C.ar 0 **** 0
53335 C41 131.012 113.513 147.337 C.ar 0 **** 0
53336 C42 130.917 112.172 146.911 C.ar 0 **** -0.1268
53337 C43 130.071 111.244 147.553 C.ar 0 **** 0
53338 C44 129.26 111.632 148.641 C.ar 0 **** 0
53339 C45 129.318 112.971 149.057 C.ar 0 **** 0
53340 C46 128.489 113.388 150.122 C.ar 0 **** -0.1268
53341 C47 127.625 112.524 150.777 C.ar 0 **** 0
53342 C48 127.581 111.21 150.349 C.ar 0 **** -0.1268
53343 C49 128.379 110.736 149.294 C.ar 0 **** 0
53344 C50 128.329 109.403 148.852 C.ar 0 **** 0.042
53345 C51 129.115 108.989 147.794 C.ar 0 **** -0.1268
53346 C52 129.963 109.885 147.148 C.ar 0 **** -0.1268
53347 O53 133.798 124.619 146.977 O.3 0 **** -0.452
53348 C54 135.546 123.946 144.829 C.3 0 **** -0.159
53349 O55 131.077 117.899 148.518 O.3 0 **** -0.452
53350 C56 126.785 113.117 151.903 C.3 0 **** -0.106
53351 C57 125.997 112.057 152.681 C.3 0 **** -0.159
53352 O58 132.539 107.713 146.337 O.3 0 **** -0.4365
53353 O59 136.637 111.973 141.407 O.3 0 **** -0.452
53354 O60 127.54 108.453 149.391 O.3 0 **** -0.452
53355 H61 132.408 122.613 148.085 H 0 **** 0.1268
53356 H62 135.442 121.356 144.351 H 0 **** 0.1268
53357 H63 131.287 120.052 147.358 H 0 **** 0.053
53358 H64 132.636 119.771 148.522 H 0 **** 0.053
53359 H65 135.128 119.784 143.396 H 0 **** 0.053
53360 H66 136.366 118.713 144.098 H 0 **** 0.053
53361 H67 134.215 117.963 142.003 H 0 **** 0.053
53362 H68 135.949 118.273 141.662 H 0 **** 0.053
53363 H69 135.573 115.864 141.943 H 0 **** 0.053
53364 H70 136.61 116.466 143.241 H 0 **** 0.053
53365 H71 133.356 112.302 146.032 H 0 **** 0.053
53366 H72 136.127 114.036 142.935 H 0 **** 0.053
53367 H73 136.778 107.055 143.249 H 0 **** 0.053
53368 H74 135.34 106.197 142.661 H 0 **** 0.053
53369 H75 136.61 107.212 140.755 H 0 **** 0.053
53370 H76 135.027 107.984 140.887 H 0 **** 0.053
53371 H77 137.65 109.061 142.102 H 0 **** 0.053
53372 H78 136.863 109.687 140.659 H 0 **** 0.053
53373 H79 132.712 110.252 145.947 H 0 **** 0.1268
53374 H80 134.076 106.417 144.742 H 0 **** 0.1268
53375 H81 130.663 115.42 149.806 H 0 **** 0.053
53376 H82 129.31 115.81 148.672 H 0 **** 0.053
53377 H83 131.442 111.751 146.066 H 0 **** 0.1268
53378 H84 128.524 114.441 150.457 H 0 **** 0.1268
53379 H85 126.901 110.531 150.856 H 0 **** 0.1268
53380 H86 129.086 107.951 147.424 H 0 **** 0.1268
53381 H87 130.571 109.547 146.262 H 0 **** 0.1268
53382 H88 133.188 124.694 147.698 H 0 **** 0.41
53383 H89 135.038 124.917 144.786 H 0 **** 0.053
53384 H90 135.769 123.654 143.794 H 0 **** 0.053
53385 H91 136.499 124.087 145.364 H 0 **** 0.053
53386 H92 130.476 117.469 149.11 H 0 **** 0.41
53387 H93 127.436 113.65 152.604 H 0 **** 0.053
53388 H94 125.407 112.516 153.499 H 0 **** 0.053
53389 H95 126.667 111.308 153.146 H 0 **** 0.053
53390 H96 125.28 111.521 152.032 H 0 **** 0.053
53391 H97 132.119 108.366 146.872 H 0 **** 0.41
53392 H98 136.577 112.914 141.398 H 0 **** 0.41
53393 H99 127.026 108.83 150.093 H 0 **** 0.41
53394 H100 132.228 112.45 144.576 H 0 **** 0.053
53395 H101 134.645 113.966 141.941 H 0 **** 0.053
53396 H102 126.082 113.849 151.491 H 0 **** 0.053
53397 C1 141.625 128.059 191.888 C.ar 0 **** 0.042
53398 C2 141.323 127.259 190.802 C.ar 0 **** -0.1268
53399 C3 141.035 127.82 189.568 C.ar 0 **** 0
53400 C4 141.041 129.204 189.39 C.ar 0 **** 0
53401 C5 141.36 130.004 190.491 C.ar 0 **** -0.1268
53402 C6 141.637 129.452 191.733 C.ar 0 **** 0
53403 C7 140.696 129.461 188 C.ar 0 **** 0
53404 C8 140.508 128.237 187.38 C.ar 0 **** 0
53405 C9 140.698 127.086 188.306 C.3 0 **** -0.106
53406 C10 140.183 128.184 186.029 C.ar 0 **** 0
53407 C11 140.042 129.368 185.275 C.ar 0 **** 0
53408 C12 140.238 130.595 185.966 C.ar 0 **** 0
53409 C13 140.552 130.649 187.329 C.ar 0 **** 0
53410 C14 140.751 131.974 188.011 C.3 0 **** -0.106
53411 C15 139.868 133.051 187.381 C.3 0 **** -0.106
53412 C16 140.271 133.184 185.938 C.3 0 **** -0.106
53413 C17 140.083 131.891 185.172 C.ar 0 **** 0
53414 C18 139.808 131.904 183.843 C.ar 0 **** 0
53415 C19 139.647 130.734 183.154 C.ar 0 **** 0
53416 C20 139.719 129.33 183.874 C.ar 0 **** 0
53417 C21 139.478 128.021 183.294 C.ar 0 **** 0
53418 C22 139.672 126.903 184.113 C.ar 0 **** 0
53419 C23 140.001 126.952 185.422 C.ar 0 **** 0.042
53420 C24 139.379 130.783 181.657 C.3 0 **** -0.106
53421 C25 139.555 132.165 180.963 C.ar 0 **** 0
53422 C26 139.686 133.308 181.713 C.ar 0 **** 0
53423 C27 139.705 133.287 183.206 C.3 0 **** -0.106
53424 C28 139.79 134.551 181.093 C.ar 0 **** 0.042
53425 C29 139.752 134.691 179.716 C.ar 0 **** 0
53426 C30 139.63 133.525 178.976 C.ar 0 **** 0
53427 C31 139.53 132.272 179.576 C.ar 0 **** 0
53428 C32 139.584 133.55 177.44 C.ar 0 **** 0
53429 C33 139.688 134.954 176.833 C.3 0 **** -0.106
53430 C34 139.089 136.03 177.736 C.3 0 **** -0.106
53431 C35 139.864 136.042 179.051 C.3 0 **** -0.106
53432 C36 139.401 131.063 178.672 C.ar 0 **** -0.1268
53433 C37 139.371 131.219 177.322 C.ar 0 **** 0.0265
53434 C38 139.456 132.411 176.715 C.ar 0 **** -0.1268
53435 C39 139.468 125.572 183.49 C.3 0 **** -0.106
53436 C40 139.053 126.05 182.137 C.ar 0 **** 0
53437 C41 139.06 127.442 182.018 C.ar 0 **** 0
53438 C42 138.628 127.945 180.773 C.ar 0 **** -0.1268
53439 C43 138.265 127.094 179.71 C.ar 0 **** 0
53440 C44 138.298 125.692 179.86 C.ar 0 **** 0
53441 C45 138.685 125.172 181.106 C.ar 0 **** 0
53442 C46 138.686 123.772 181.291 C.ar 0 **** -0.1268
53443 C47 138.331 122.888 180.285 C.ar 0 **** 0
53444 C48 137.973 123.419 179.061 C.ar 0 **** -0.1268
53445 C49 137.931 124.804 178.82 C.ar 0 **** 0
53446 C50 137.513 125.347 177.591 C.ar 0 **** 0.042
53447 C51 137.472 126.715 177.411 C.ar 0 **** -0.1268
53448 C52 137.834 127.577 178.443 C.ar 0 **** -0.1268
53449 O53 141.913 127.508 193.113 O.3 0 **** -0.452
53450 C54 141.984 130.348 192.912 C.3 0 **** -0.159
53451 O55 140.145 125.81 186.117 O.3 0 **** -0.452
53452 C56 138.362 121.403 180.628 C.3 0 **** -0.106
53453 C57 138.111 120.502 179.413 C.3 0 **** -0.159
53454 O58 139.248 130.118 176.562 O.3 0 **** -0.4365
53455 O59 139.929 135.709 181.809 O.3 0 **** -0.452
53456 O60 137.126 124.614 176.528 O.3 0 **** -0.452
53457 H61 141.305 126.148 190.884 H 0 **** 0.1268
53458 H62 141.421 131.1 190.449 H 0 **** 0.1268
53459 H63 139.784 126.481 188.451 H 0 **** 0.053
53460 H64 141.536 126.423 188.021 H 0 **** 0.053
53461 H65 140.485 131.927 189.063 H 0 **** 0.053
53462 H66 141.812 132.298 187.935 H 0 **** 0.053
53463 H67 138.789 132.781 187.487 H 0 **** 0.053
53464 H68 139.997 134.033 187.925 H 0 **** 0.053
53465 H69 139.682 133.995 185.492 H 0 **** 0.053
53466 H70 141.329 133.496 185.892 H 0 **** 0.053
53467 H71 140.07 130.069 181.161 H 0 **** 0.053
53468 H72 140.578 133.858 183.539 H 0 **** 0.053
53469 H73 140.757 135.182 176.649 H 0 **** 0.053
53470 H74 139.194 134.929 175.852 H 0 **** 0.053
53471 H75 139.155 137.009 177.246 H 0 **** 0.053
53472 H76 138.022 135.83 177.915 H 0 **** 0.053
53473 H77 140.924 136.263 178.863 H 0 **** 0.053
53474 H78 139.485 136.817 179.707 H 0 **** 0.053
53475 H79 139.35 130.096 179.135 H 0 **** 0.1268
53476 H80 139.436 132.505 175.641 H 0 **** 0.1268
53477 H81 140.391 124.974 183.431 H 0 **** 0.053
53478 H82 138.663 124.988 183.963 H 0 **** 0.053
53479 H83 138.516 128.992 180.533 H 0 **** 0.1268
53480 H84 138.988 123.352 182.267 H 0 **** 0.1268
53481 H85 137.679 122.728 178.275 H 0 **** 0.1268
53482 H86 137.149 127.162 176.457 H 0 **** 0.1268
53483 H87 137.769 128.692 178.295 H 0 **** 0.1268
53484 H88 141.853 126.566 193.039 H 0 **** 0.41
53485 H89 141.625 129.915 193.852 H 0 **** 0.053
53486 H90 141.525 131.343 192.821 H 0 **** 0.053
53487 H91 143.075 130.475 192.994 H 0 **** 0.053
53488 H92 139.981 125.061 185.561 H 0 **** 0.41
53489 H93 139.338 121.148 181.054 H 0 **** 0.053
53490 H94 138.158 119.431 179.692 H 0 **** 0.053
53491 H95 138.868 120.664 178.621 H 0 **** 0.053
53492 H96 137.111 120.675 178.975 H 0 **** 0.053
53493 H97 139.287 129.335 177.087 H 0 **** 0.41
53494 H98 139.934 135.522 182.734 H 0 **** 0.41
53495 H99 137.186 123.693 176.745 H 0 **** 0.41
53496 H100 138.312 130.51 181.522 H 0 **** 0.053
53497 H101 138.795 133.763 183.588 H 0 **** 0.053
53498 H102 137.607 121.184 181.391 H 0 **** 0.053
53499 C1 157.875 132.827 118.9 C.ar 0 **** 0.042
53500 C2 158.368 132.019 117.893 C.ar 0 **** -0.1268
53501 C3 159.665 131.536 117.945 C.ar 0 **** 0
53502 C4 160.507 131.853 119.011 C.ar 0 **** 0
53503 C5 159.994 132.661 120.031 C.ar 0 **** -0.1268
53504 C6 158.701 133.159 119.982 C.ar 0 **** 0
53505 C7 161.784 131.202 118.761 C.ar 0 **** 0
53506 C8 161.674 130.505 117.571 C.ar 0 **** 0
53507 C9 160.333 130.65 116.938 C.3 0 **** -0.106
53508 C10 162.753 129.769 117.093 C.ar 0 **** 0
53509 C11 163.966 129.72 117.812 C.ar 0 **** 0
53510 C12 164.023 130.462 119.024 C.ar 0 **** 0
53511 C13 162.942 131.214 119.497 C.ar 0 **** 0
53512 C14 163.054 131.979 120.786 C.3 0 **** -0.106
53513 C15 164.487 132.465 121.01 C.3 0 **** -0.106
53514 C16 165.373 131.251 121.088 C.3 0 **** -0.106
53515 C17 165.33 130.432 119.815 C.ar 0 **** 0
53516 C18 166.403 129.699 119.423 C.ar 0 **** 0
53517 C19 166.357 128.955 118.278 C.ar 0 **** 0
53518 C20 165.088 128.954 117.339 C.ar 0 **** 0
53519 C21 164.931 128.29 116.057 C.ar 0 **** 0
53520 C22 163.681 128.369 115.433 C.ar 0 **** 0
53521 C23 162.628 129.074 115.901 C.ar 0 **** 0.042
53522 C24 167.563 128.113 117.888 C.3 0 **** -0.106
53523 C25 168.683 127.964 118.959 C.ar 0 **** 0
53524 C26 168.687 128.761 120.077 C.ar 0 **** 0
53525 C27 167.619 129.771 120.343 C.3 0 **** -0.106
53526 C28 169.717 128.665 121.01 C.ar 0 **** 0.042
53527 C29 170.774 127.786 120.848 C.ar 0 **** 0
53528 C30 170.747 126.981 119.72 C.ar 0 **** 0
53529 C31 169.725 127.059 118.778 C.ar 0 **** 0
53530 C32 171.861 125.961 119.434 C.ar 0 **** 0
53531 C33 172.965 125.925 120.496 C.3 0 **** -0.106
53532 C34 173.183 127.282 121.163 C.3 0 **** -0.106
53533 C35 171.888 127.687 121.864 C.3 0 **** -0.106
53534 C36 169.793 126.133 117.581 C.ar 0 **** -0.1268
53535 C37 170.837 125.273 117.441 C.ar 0 **** 0.0265
53536 C38 171.84 125.181 118.325 C.ar 0 **** -0.1268
53537 C39 163.526 127.645 114.148 C.3 0 **** -0.106
53538 C40 164.926 127.136 114.038 C.ar 0 **** 0
53539 C41 165.729 127.498 115.122 C.ar 0 **** 0
53540 C42 167.075 127.082 115.043 C.ar 0 **** -0.1268
53541 C43 167.556 126.312 113.964 C.ar 0 **** 0
53542 C44 166.708 125.951 112.895 C.ar 0 **** 0
53543 C45 165.374 126.385 112.94 C.ar 0 **** 0
53544 C46 164.517 126.06 111.866 C.ar 0 **** -0.1268
53545 C47 164.941 125.325 110.769 C.ar 0 **** 0
53546 C48 166.259 124.91 110.743 C.ar 0 **** -0.1268
53547 C49 167.16 125.204 111.781 C.ar 0 **** 0
53548 C50 168.504 124.792 111.75 C.ar 0 **** 0.042
53549 C51 169.358 125.123 112.784 C.ar 0 **** -0.1268
53550 C52 168.904 125.871 113.867 C.ar 0 **** -0.1268
53551 O53 156.588 133.307 118.853 O.3 0 **** -0.452
53552 C54 158.17 134.032 121.109 C.3 0 **** -0.159
53553 O55 161.478 129.096 115.206 O.3 0 **** -0.452
53554 C56 163.907 125.058 109.681 C.3 0 **** -0.106
53555 C57 164.412 124.093 108.601 C.3 0 **** -0.159
53556 O58 170.86 124.48 116.357 O.3 0 **** -0.4365
53557 O59 169.748 129.438 122.138 O.3 0 **** -0.452
53558 O60 169.057 124.077 110.751 O.3 0 **** -0.452
53559 H61 157.741 131.729 117.018 H 0 **** 0.1268
53560 H62 160.563 132.942 120.928 H 0 **** 0.1268
53561 H63 160.362 131.15 115.952 H 0 **** 0.053
53562 H64 159.78 129.697 116.85 H 0 **** 0.053
53563 H65 162.422 132.862 120.786 H 0 **** 0.053
53564 H66 162.759 131.341 121.648 H 0 **** 0.053
53565 H67 164.799 133.154 120.187 H 0 **** 0.053
53566 H68 164.552 133.07 121.962 H 0 **** 0.053
53567 H69 166.394 131.587 121.306 H 0 **** 0.053
53568 H70 165.051 130.632 121.943 H 0 **** 0.053
53569 H71 167.204 127.093 117.636 H 0 **** 0.053
53570 H72 167.256 129.615 121.364 H 0 **** 0.053
53571 H73 172.691 125.176 121.267 H 0 **** 0.053
53572 H74 173.881 125.563 120.011 H 0 **** 0.053
53573 H75 174.003 127.215 121.888 H 0 **** 0.053
53574 H76 173.473 128.035 120.416 H 0 **** 0.053
53575 H77 171.618 126.94 122.622 H 0 **** 0.053
53576 H78 172.015 128.634 122.376 H 0 **** 0.053
53577 H79 168.991 126.174 116.87 H 0 **** 0.1268
53578 H80 172.652 124.483 118.194 H 0 **** 0.1268
53579 H81 162.807 126.813 114.202 H 0 **** 0.053
53580 H82 163.282 128.307 113.301 H 0 **** 0.053
53581 H83 167.842 127.324 115.764 H 0 **** 0.1268
53582 H84 163.464 126.396 111.888 H 0 **** 0.1268
53583 H85 166.597 124.338 109.883 H 0 **** 0.1268
53584 H86 170.416 124.814 112.779 H 0 **** 0.1268
53585 H87 169.618 126.168 114.687 H 0 **** 0.1268
53586 H88 156.181 132.983 118.061 H 0 **** 0.41
53587 H89 157.46 134.775 120.727 H 0 **** 0.053
53588 H90 158.974 134.587 121.612 H 0 **** 0.053
53589 H91 157.646 133.419 121.86 H 0 **** 0.053
53590 H92 161.555 128.572 114.421 H 0 **** 0.41
53591 H93 163.003 124.634 110.129 H 0 **** 0.053
53592 H94 163.636 123.911 107.832 H 0 **** 0.053
53593 H95 164.684 123.108 109.027 H 0 **** 0.053
53594 H96 165.297 124.496 108.074 H 0 **** 0.053
53595 H97 170.058 124.552 115.864 H 0 **** 0.41
53596 H98 169 130.013 122.162 H 0 **** 0.41
53597 H99 168.4 123.898 110.09 H 0 **** 0.41
53598 H100 168.037 128.625 117.025 H 0 **** 0.053
53599 H101 168.042 130.779 120.26 H 0 **** 0.053
53600 H102 163.622 126.003 109.204 H 0 **** 0.053
53601 C1 156.863 127.119 148.412 C.ar 0 **** 0.042
53602 C2 155.96 127.124 149.459 C.ar 0 **** -0.1268
53603 C3 154.682 126.617 149.292 C.ar 0 **** 0
53604 C4 154.272 126.091 148.066 C.ar 0 **** 0
53605 C5 155.198 126.079 147.018 C.ar 0 **** -0.1268
53606 C6 156.476 126.595 147.171 C.ar 0 **** 0
53607 C7 152.893 125.655 148.222 C.ar 0 **** 0
53608 C8 152.516 125.914 149.529 C.ar 0 **** 0
53609 C9 153.602 126.549 150.328 C.3 0 **** -0.106
53610 C10 151.239 125.579 149.964 C.ar 0 **** 0
53611 C11 150.315 124.972 149.087 C.ar 0 **** 0
53612 C12 150.755 124.738 147.755 C.ar 0 **** 0
53613 C13 152.035 125.088 147.313 C.ar 0 **** 0
53614 C14 152.451 124.816 145.895 C.3 0 **** -0.106
53615 C15 151.256 124.916 144.947 C.3 0 **** -0.106
53616 C16 150.253 123.876 145.366 C.3 0 **** -0.106
53617 C17 149.769 124.09 146.785 C.ar 0 **** 0
53618 C18 148.523 123.702 147.161 C.ar 0 **** 0
53619 C19 148.094 123.89 148.444 C.ar 0 **** 0
53620 C20 148.994 124.608 149.525 C.ar 0 **** 0
53621 C21 148.639 124.956 150.889 C.ar 0 **** 0
53622 C22 149.631 125.527 151.693 C.ar 0 **** 0
53623 C23 150.877 125.841 151.276 C.ar 0 **** 0.042
53624 C24 146.707 123.408 148.843 C.3 0 **** -0.106
53625 C25 145.963 122.504 147.817 C.ar 0 **** 0
53626 C26 146.432 122.376 146.533 C.ar 0 **** 0
53627 C27 147.679 123.055 146.067 C.3 0 **** -0.106
53628 C28 145.738 121.61 145.599 C.ar 0 **** 0.042
53629 C29 144.554 120.964 145.913 C.ar 0 **** 0
53630 C30 144.102 121.094 147.218 C.ar 0 **** 0
53631 C31 144.783 121.851 148.167 C.ar 0 **** 0
53632 C32 142.805 120.417 147.689 C.ar 0 **** 0
53633 C33 142.091 119.607 146.602 C.3 0 **** -0.106
53634 C34 142.312 120.177 145.203 C.3 0 **** -0.106
53635 C35 143.807 120.136 144.896 C.3 0 **** -0.106
53636 C36 144.2 121.926 149.564 C.ar 0 **** -0.1268
53637 C37 143.04 121.281 149.856 C.ar 0 **** 0.0265
53638 C38 142.357 120.553 148.961 C.ar 0 **** -0.1268
53639 C39 149.264 125.831 153.098 C.3 0 **** -0.106
53640 C40 147.835 125.4 153.025 C.ar 0 **** 0
53641 C41 147.475 124.899 151.773 C.ar 0 **** 0
53642 C42 146.122 124.523 151.638 C.ar 0 **** -0.1268
53643 C43 145.213 124.606 152.714 C.ar 0 **** 0
53644 C44 145.62 125.1 153.971 C.ar 0 **** 0
53645 C45 146.956 125.51 154.114 C.ar 0 **** 0
53646 C46 147.375 126.038 155.355 C.ar 0 **** -0.1268
53647 C47 146.521 126.162 156.44 C.ar 0 **** 0
53648 C48 145.21 125.755 156.277 C.ar 0 **** -0.1268
53649 C49 144.732 125.224 155.067 C.ar 0 **** 0
53650 C50 143.396 124.82 154.897 C.ar 0 **** 0.042
53651 C51 142.968 124.326 153.68 C.ar 0 **** -0.1268
53652 C52 143.847 124.226 152.605 C.ar 0 **** -0.1268
53653 O53 158.134 127.618 148.574 O.3 0 **** -0.452
53654 C54 157.461 126.565 146.013 C.3 0 **** -0.159
53655 O55 151.745 126.405 152.133 O.3 0 **** -0.452
53656 C56 147.111 126.756 157.714 C.3 0 **** -0.106
53657 C57 146.15 126.689 158.906 C.3 0 **** -0.159
53658 O58 142.558 121.383 151.105 O.3 0 **** -0.4365
53659 O59 146.182 121.456 144.314 O.3 0 **** -0.452
53660 O60 142.455 124.882 155.859 O.3 0 **** -0.452
53661 H61 156.231 127.527 150.461 H 0 **** 0.1268
53662 H62 154.986 125.66 146.024 H 0 **** 0.1268
53663 H63 153.352 127.565 150.684 H 0 **** 0.053
53664 H64 153.939 125.933 151.183 H 0 **** 0.053
53665 H65 153.187 125.536 145.547 H 0 **** 0.053
53666 H66 152.891 123.799 145.803 H 0 **** 0.053
53667 H67 150.821 125.945 144.975 H 0 **** 0.053
53668 H68 151.585 124.748 143.879 H 0 **** 0.053
53669 H69 149.417 123.902 144.656 H 0 **** 0.053
53670 H70 150.718 122.878 145.276 H 0 **** 0.053
53671 H71 146.801 122.833 149.788 H 0 **** 0.053
53672 H72 148.308 122.304 145.579 H 0 **** 0.053
53673 H73 142.464 118.563 146.637 H 0 **** 0.053
53674 H74 141.023 119.573 146.861 H 0 **** 0.053
53675 H75 141.755 119.586 144.466 H 0 **** 0.053
53676 H76 141.931 121.207 145.145 H 0 **** 0.053
53677 H77 144.173 119.101 144.937 H 0 **** 0.053
53678 H78 143.998 120.506 143.895 H 0 **** 0.053
53679 H79 144.74 122.489 150.301 H 0 **** 0.1268
53680 H80 141.442 120.044 149.22 H 0 **** 0.1268
53681 H81 149.82 125.229 153.833 H 0 **** 0.053
53682 H82 149.338 126.902 153.346 H 0 **** 0.053
53683 H83 145.663 124.173 150.725 H 0 **** 0.1268
53684 H84 148.423 126.366 155.48 H 0 **** 0.1268
53685 H85 144.536 125.856 157.124 H 0 **** 0.1268
53686 H86 141.924 124.009 153.522 H 0 **** 0.1268
53687 H87 143.478 123.857 151.607 H 0 **** 0.1268
53688 H88 158.216 127.928 149.466 H 0 **** 0.41
53689 H89 158.129 127.433 146.046 H 0 **** 0.053
53690 H90 156.952 126.589 145.04 H 0 **** 0.053
53691 H91 158.085 125.657 146.059 H 0 **** 0.053
53692 H92 151.343 126.521 152.983 H 0 **** 0.41
53693 H93 148.029 126.221 157.978 H 0 **** 0.053
53694 H94 146.61 127.118 159.818 H 0 **** 0.053
53695 H95 145.867 125.646 159.145 H 0 **** 0.053
53696 H96 145.223 127.262 158.717 H 0 **** 0.053
53697 H97 143.163 121.838 151.668 H 0 **** 0.41
53698 H98 146.982 121.94 144.186 H 0 **** 0.41
53699 H99 142.837 125.241 156.65 H 0 **** 0.41
53700 H100 146.08 124.316 148.955 H 0 **** 0.053
53701 H101 147.419 123.834 145.341 H 0 **** 0.053
53702 H102 147.384 127.803 157.539 H 0 **** 0.053
53703 C1 142.175 123.887 101.201 C.ar 0 **** 0.042
53704 C2 141.474 122.705 101.349 C.ar 0 **** -0.1268
53705 C3 140.102 122.715 101.539 C.ar 0 **** 0
53706 C4 139.393 123.916 101.589 C.ar 0 **** 0
53707 C5 140.11 125.106 101.428 C.ar 0 **** -0.1268
53708 C6 141.485 125.106 101.25 C.ar 0 **** 0
53709 C7 137.993 123.581 101.802 C.ar 0 **** 0
53710 C8 137.894 122.202 101.859 C.ar 0 **** 0
53711 C9 139.211 121.522 101.704 C.3 0 **** -0.106
53712 C10 136.654 121.6 102.039 C.ar 0 **** 0
53713 C11 135.486 122.381 102.164 C.ar 0 **** 0
53714 C12 135.649 123.792 102.107 C.ar 0 **** 0
53715 C13 136.898 124.399 101.939 C.ar 0 **** 0
53716 C14 137.016 125.896 101.883 C.3 0 **** -0.106
53717 C15 135.948 126.56 102.752 C.3 0 **** -0.106
53718 C16 134.603 126.159 102.21 C.3 0 **** -0.106
53719 C17 134.399 124.659 102.248 C.ar 0 **** 0
53720 C18 133.156 124.13 102.384 C.ar 0 **** 0
53721 C19 132.975 122.776 102.41 C.ar 0 **** 0
53722 C20 134.193 121.773 102.338 C.ar 0 **** 0
53723 C21 134.161 120.325 102.446 C.ar 0 **** 0
53724 C22 135.366 119.635 102.278 C.ar 0 **** 0
53725 C23 136.571 120.218 102.089 C.ar 0 **** 0.042
53726 C24 131.565 122.215 102.523 C.3 0 **** -0.106
53727 C25 130.397 123.23 102.352 C.ar 0 **** 0
53728 C26 130.642 124.581 102.364 C.ar 0 **** 0
53729 C27 132.02 125.143 102.493 C.3 0 **** -0.106
53730 C28 129.59 125.49 102.274 C.ar 0 **** 0.042
53731 C29 128.273 125.081 102.167 C.ar 0 **** 0
53732 C30 128.046 123.714 102.144 C.ar 0 **** 0
53733 C31 129.082 122.788 102.238 C.ar 0 **** 0
53734 C32 126.626 123.137 102.031 C.ar 0 **** 0
53735 C33 125.525 124.198 101.941 C.3 0 **** -0.106
53736 C34 125.882 125.482 102.688 C.3 0 **** -0.106
53737 C35 127.14 126.073 102.055 C.3 0 **** -0.106
53738 C36 128.722 121.317 102.207 C.ar 0 **** -0.1268
53739 C37 127.422 120.933 102.107 C.ar 0 **** 0.0265
53740 C38 126.402 121.799 102.023 C.ar 0 **** -0.1268
53741 C39 135.306 118.154 102.344 C.3 0 **** -0.106
53742 C40 133.847 118.03 102.641 C.ar 0 **** 0
53743 C41 133.19 119.261 102.698 C.ar 0 **** 0
53744 C42 131.819 119.201 103.024 C.ar 0 **** -0.1268
53745 C43 131.154 117.974 103.23 C.ar 0 **** 0
53746 C44 131.848 116.749 103.144 C.ar 0 **** 0
53747 C45 133.221 116.791 102.854 C.ar 0 **** 0
53748 C46 133.941 115.578 102.796 C.ar 0 **** -0.1268
53749 C47 133.344 114.345 103.011 C.ar 0 **** 0
53750 C48 131.992 114.326 103.298 C.ar 0 **** -0.1268
53751 C49 131.223 115.499 103.372 C.ar 0 **** 0
53752 C50 129.85 115.482 103.675 C.ar 0 **** 0.042
53753 C51 129.14 116.664 103.759 C.ar 0 **** -0.1268
53754 C52 129.771 117.887 103.551 C.ar 0 **** -0.1268
53755 O53 143.535 123.882 101.003 O.3 0 **** -0.452
53756 C54 142.237 126.417 101.076 C.3 0 **** -0.159
53757 O55 137.668 119.452 101.957 O.3 0 **** -0.452
53758 C56 134.248 113.119 102.924 C.3 0 **** -0.106
53759 C57 133.473 111.799 102.996 C.3 0 **** -0.159
53760 O58 127.151 119.618 102.093 O.3 0 **** -0.4365
53761 O59 129.799 126.842 102.284 O.3 0 **** -0.452
53762 O60 129.137 114.363 103.908 O.3 0 **** -0.452
53763 H61 141.986 121.716 101.315 H 0 **** 0.1268
53764 H62 139.643 126.101 101.423 H 0 **** 0.1268
53765 H63 139.515 120.941 102.593 H 0 **** 0.053
53766 H64 139.273 120.879 100.807 H 0 **** 0.053
53767 H65 137.978 126.238 102.253 H 0 **** 0.053
53768 H66 136.897 126.26 100.838 H 0 **** 0.053
53769 H67 136.071 126.257 103.821 H 0 **** 0.053
53770 H68 136.068 127.684 102.733 H 0 **** 0.053
53771 H69 133.831 126.677 102.793 H 0 **** 0.053
53772 H70 134.517 126.523 101.171 H 0 **** 0.053
53773 H71 131.443 121.43 101.747 H 0 **** 0.053
53774 H72 132.163 125.873 101.69 H 0 **** 0.053
53775 H73 125.345 124.433 100.872 H 0 **** 0.053
53776 H74 124.599 123.751 102.329 H 0 **** 0.053
53777 H75 125.052 126.196 102.624 H 0 **** 0.053
53778 H76 126.046 125.272 103.755 H 0 **** 0.053
53779 H77 126.961 126.297 100.994 H 0 **** 0.053
53780 H78 127.406 127.005 102.54 H 0 **** 0.053
53781 H79 129.523 120.604 102.254 H 0 **** 0.1268
53782 H80 125.379 121.467 101.937 H 0 **** 0.1268
53783 H81 135.556 117.665 101.389 H 0 **** 0.053
53784 H82 135.909 117.728 103.161 H 0 **** 0.053
53785 H83 131.177 120.058 103.167 H 0 **** 0.1268
53786 H84 135.023 115.597 102.57 H 0 **** 0.1268
53787 H85 131.521 113.362 103.472 H 0 **** 0.1268
53788 H86 128.065 116.675 104.001 H 0 **** 0.1268
53789 H87 129.191 118.847 103.66 H 0 **** 0.1268
53790 H88 143.834 122.983 101.027 H 0 **** 0.41
53791 H89 143.242 126.352 101.508 H 0 **** 0.053
53792 H90 141.728 127.252 101.577 H 0 **** 0.053
53793 H91 142.343 126.666 100.008 H 0 **** 0.053
53794 H92 137.44 118.535 102.023 H 0 **** 0.41
53795 H93 134.808 113.142 101.984 H 0 **** 0.053
53796 H94 134.154 110.929 102.92 H 0 **** 0.053
53797 H95 132.739 111.71 102.172 H 0 **** 0.053
53798 H96 132.929 111.696 103.954 H 0 **** 0.053
53799 H97 127.943 119.106 102.061 H 0 **** 0.41
53800 H98 130.721 127.032 102.341 H 0 **** 0.41
53801 H99 129.704 113.606 103.839 H 0 **** 0.41
53802 H100 131.47 121.816 103.554 H 0 **** 0.053
53803 H101 132.117 125.649 103.459 H 0 **** 0.053
53804 H102 134.98 113.144 103.74 H 0 **** 0.053
53805 C1 120.801 113.698 148.924 C.ar 0 **** 0.042
53806 C2 121.187 114.141 150.176 C.ar 0 **** -0.1268
53807 C3 120.455 115.113 150.838 C.ar 0 **** 0
53808 C4 119.313 115.67 150.261 C.ar 0 **** 0
53809 C5 118.924 115.206 149.001 C.ar 0 **** -0.1268
53810 C6 119.657 114.242 148.325 C.ar 0 **** 0
53811 C7 118.789 116.65 151.2 C.ar 0 **** 0
53812 C8 119.613 116.648 152.313 C.ar 0 **** 0
53813 C9 120.743 115.685 152.193 C.3 0 **** -0.106
53814 C10 119.334 117.486 153.387 C.ar 0 **** 0
53815 C11 118.215 118.345 153.358 C.ar 0 **** 0
53816 C12 117.41 118.31 152.187 C.ar 0 **** 0
53817 C13 117.698 117.477 151.1 C.ar 0 **** 0
53818 C14 116.813 117.477 149.886 C.3 0 **** -0.106
53819 C15 116.205 118.861 149.654 C.3 0 **** -0.106
53820 C16 115.373 119.201 150.86 C.3 0 **** -0.106
53821 C17 116.197 119.237 152.129 C.ar 0 **** 0
53822 C18 115.85 120.048 153.162 C.ar 0 **** 0
53823 C19 116.592 120.072 154.308 C.ar 0 **** 0
53824 C20 117.906 119.209 154.466 C.ar 0 **** 0
53825 C21 118.837 119.203 155.58 C.ar 0 **** 0
53826 C22 119.901 118.295 155.532 C.ar 0 **** 0
53827 C23 120.166 117.47 154.495 C.ar 0 **** 0.042
53828 C24 116.153 120.963 155.461 C.3 0 **** -0.106
53829 C25 114.738 121.602 155.346 C.ar 0 **** 0
53830 C26 114.053 121.567 154.157 C.ar 0 **** 0
53831 C27 114.599 120.894 152.94 C.3 0 **** -0.106
53832 C28 112.81 122.185 154.039 C.ar 0 **** 0.042
53833 C29 112.224 122.864 155.093 C.ar 0 **** 0
53834 C30 112.925 122.879 156.289 C.ar 0 **** 0
53835 C31 114.166 122.264 156.43 C.ar 0 **** 0
53836 C32 112.375 123.595 157.533 C.ar 0 **** 0
53837 C33 111.013 124.263 157.32 C.3 0 **** -0.106
53838 C34 110.812 124.744 155.884 C.3 0 **** -0.106
53839 C35 110.877 123.532 154.957 C.3 0 **** -0.106
53840 C36 114.846 122.341 157.782 C.ar 0 **** -0.1268
53841 C37 114.253 123.008 158.807 C.ar 0 **** 0.0265
53842 C38 113.064 123.618 158.701 C.ar 0 **** -0.1268
53843 C39 120.815 118.27 156.7 C.3 0 **** -0.106
53844 C40 120.169 119.369 157.479 C.ar 0 **** 0
53845 C41 119.043 119.902 156.848 C.ar 0 **** 0
53846 C42 118.425 120.977 157.52 C.ar 0 **** -0.1268
53847 C43 118.89 121.444 158.767 C.ar 0 **** 0
53848 C44 120.021 120.866 159.383 C.ar 0 **** 0
53849 C45 120.669 119.817 158.712 C.ar 0 **** 0
53850 C46 121.822 119.247 159.295 C.ar 0 **** -0.1268
53851 C47 122.335 119.679 160.508 C.ar 0 **** 0
53852 C48 121.684 120.716 161.151 C.ar 0 **** -0.1268
53853 C49 120.535 121.325 160.62 C.ar 0 **** 0
53854 C50 119.877 122.386 161.267 C.ar 0 **** 0.042
53855 C51 118.764 122.969 160.694 C.ar 0 **** -0.1268
53856 C52 118.28 122.521 159.468 C.ar 0 **** -0.1268
53857 O53 121.521 112.731 148.265 O.3 0 **** -0.452
53858 C54 119.207 113.755 146.956 C.3 0 **** -0.159
53859 O55 121.23 116.65 154.55 O.3 0 **** -0.452
53860 C56 123.59 118.976 161.012 C.3 0 **** -0.106
53861 C57 123.982 119.395 162.434 C.3 0 **** -0.159
53862 O58 114.897 123.055 159.985 O.3 0 **** -0.4365
53863 O59 112.097 122.161 152.871 O.3 0 **** -0.452
53864 O60 120.26 122.91 162.448 O.3 0 **** -0.452
53865 H61 122.087 113.731 150.687 H 0 **** 0.1268
53866 H62 118.026 115.556 148.474 H 0 **** 0.1268
53867 H63 121.737 116.168 152.197 H 0 **** 0.053
53868 H64 120.722 114.882 152.953 H 0 **** 0.053
53869 H65 117.366 117.225 148.986 H 0 **** 0.053
53870 H66 115.986 116.743 150.003 H 0 **** 0.053
53871 H67 117.01 119.616 149.48 H 0 **** 0.053
53872 H68 115.572 118.86 148.718 H 0 **** 0.053
53873 H69 114.886 120.167 150.678 H 0 **** 0.053
53874 H70 114.567 118.451 150.958 H 0 **** 0.053
53875 H71 116.171 120.356 156.391 H 0 **** 0.053
53876 H72 113.825 120.225 152.55 H 0 **** 0.053
53877 H73 110.217 123.535 157.578 H 0 **** 0.053
53878 H74 110.932 125.091 158.037 H 0 **** 0.053
53879 H75 109.841 125.244 155.789 H 0 **** 0.053
53880 H76 111.582 125.48 155.616 H 0 **** 0.053
53881 H77 110.09 122.812 155.221 H 0 **** 0.053
53882 H78 110.708 123.833 153.929 H 0 **** 0.053
53883 H79 115.79 121.844 157.896 H 0 **** 0.1268
53884 H80 112.613 124.134 159.534 H 0 **** 0.1268
53885 H81 120.781 117.32 157.258 H 0 **** 0.053
53886 H82 121.855 118.528 156.446 H 0 **** 0.053
53887 H83 117.583 121.541 157.146 H 0 **** 0.1268
53888 H84 122.343 118.422 158.777 H 0 **** 0.1268
53889 H85 122.088 121.063 162.099 H 0 **** 0.1268
53890 H86 118.237 123.806 161.18 H 0 **** 0.1268
53891 H87 117.394 123.028 158.992 H 0 **** 0.1268
53892 H88 122.257 112.489 148.81 H 0 **** 0.41
53893 H89 120.069 113.492 146.331 H 0 **** 0.053
53894 H90 118.64 114.523 146.412 H 0 **** 0.053
53895 H91 118.575 112.857 147.053 H 0 **** 0.053
53896 H92 121.692 116.766 155.369 H 0 **** 0.41
53897 H93 123.435 117.893 160.999 H 0 **** 0.053
53898 H94 124.89 118.86 162.775 H 0 **** 0.053
53899 H95 123.179 119.169 163.162 H 0 **** 0.053
53900 H96 124.207 120.476 162.495 H 0 **** 0.053
53901 H97 115.674 122.521 159.971 H 0 **** 0.41
53902 H98 112.576 121.692 152.207 H 0 **** 0.41
53903 H99 121.038 122.462 162.754 H 0 **** 0.41
53904 H100 116.866 121.811 155.491 H 0 **** 0.053
53905 H101 114.837 121.65 152.183 H 0 **** 0.053
53906 H102 124.426 119.193 160.338 H 0 **** 0.053
53907 C1 149.743 92.445 122.345 C.ar 0 **** 0.042
53908 C2 149.761 92.4114 123.727 C.ar 0 **** -0.1268
53909 C3 149.879 93.5799 124.461 C.ar 0 **** 0
53910 C4 149.985 94.8187 123.828 C.ar 0 **** 0
53911 C5 149.952 94.8431 122.43 C.ar 0 **** -0.1268
53912 C6 149.846 93.6776 121.686 C.ar 0 **** 0
53913 C7 150.099 95.8277 124.87 C.ar 0 **** 0
53914 C8 150.045 95.179 126.091 C.ar 0 **** 0
53915 C9 149.907 93.7016 125.955 C.3 0 **** -0.106
53916 C10 150.115 95.9107 127.272 C.ar 0 **** 0
53917 C11 150.239 97.3155 127.242 C.ar 0 **** 0
53918 C12 150.298 97.9265 125.959 C.ar 0 **** 0
53919 C13 150.241 97.1893 124.771 C.ar 0 **** 0
53920 C14 150.305 97.8849 123.44 C.3 0 **** -0.106
53921 C15 151.167 99.1449 123.524 C.3 0 **** -0.106
53922 C16 150.527 100.069 124.524 C.3 0 **** -0.106
53923 C17 150.441 99.4464 125.901 C.ar 0 **** 0
53924 C18 150.472 100.219 127.017 C.ar 0 **** 0
53925 C19 150.385 99.6534 128.258 C.ar 0 **** 0
53926 C20 150.3 98.0887 128.453 C.ar 0 **** 0
53927 C21 150.296 97.3476 129.702 C.ar 0 **** 0
53928 C22 150.138 95.9592 129.632 C.ar 0 **** 0
53929 C23 150.057 95.2476 128.486 C.ar 0 **** 0.042
53930 C24 150.384 100.551 129.487 C.3 0 **** -0.106
53931 C25 150.229 102.079 129.232 C.ar 0 **** 0
53932 C26 150.353 102.589 127.963 C.ar 0 **** 0
53933 C27 150.601 101.72 126.773 C.3 0 **** -0.106
53934 C28 150.269 103.962 127.742 C.ar 0 **** 0.042
53935 C29 150.073 104.862 128.776 C.ar 0 **** 0
53936 C30 149.939 104.327 130.048 C.ar 0 **** 0
53937 C31 150.016 102.958 130.29 C.ar 0 **** 0
53938 C32 149.712 105.224 131.275 C.ar 0 **** 0
53939 C33 149.646 106.721 130.953 C.3 0 **** -0.106
53940 C34 150.505 107.102 129.75 C.3 0 **** -0.106
53941 C35 149.983 106.348 128.528 C.3 0 **** -0.106
53942 C36 149.858 102.482 131.719 C.ar 0 **** -0.1268
53943 C37 149.666 103.38 132.721 C.ar 0 **** 0.0265
53944 C38 149.595 104.703 132.522 C.ar 0 **** -0.1268
53945 C39 150.088 95.2243 130.92 C.3 0 **** -0.106
53946 C40 150.299 96.3956 131.823 C.ar 0 **** 0
53947 C41 150.415 97.6057 131.137 C.ar 0 **** 0
53948 C42 150.665 98.7367 131.942 C.ar 0 **** -0.1268
53949 C43 150.742 98.6497 133.347 C.ar 0 **** 0
53950 C44 150.599 97.4105 134.007 C.ar 0 **** 0
53951 C45 150.384 96.2685 133.219 C.ar 0 **** 0
53952 C46 150.272 95.014 133.857 C.ar 0 **** -0.1268
53953 C47 150.361 94.8659 135.233 C.ar 0 **** 0
53954 C48 150.577 96.0024 135.99 C.ar 0 **** -0.1268
53955 C49 150.7 97.2776 135.413 C.ar 0 **** 0
53956 C50 150.931 98.4326 136.181 C.ar 0 **** 0.042
53957 C51 151.067 99.6616 135.566 C.ar 0 **** -0.1268
53958 C52 150.985 99.7758 134.181 C.ar 0 **** -0.1268
53959 O53 149.623 91.2881 121.613 O.3 0 **** -0.452
53960 C54 149.81 93.7361 120.166 C.3 0 **** -0.159
53961 O55 149.925 93.9108 128.54 O.3 0 **** -0.452
53962 C56 150.229 93.4493 135.781 C.3 0 **** -0.106
53963 C57 150.16 93.4051 137.312 C.3 0 **** -0.159
53964 O58 149.545 102.912 133.974 O.3 0 **** -0.4365
53965 O59 150.381 104.502 126.489 O.3 0 **** -0.452
53966 O60 151.044 98.4418 137.524 O.3 0 **** -0.452
53967 H61 149.676 91.4523 124.288 H 0 **** 0.1268
53968 H62 149.996 95.7666 121.837 H 0 **** 0.1268
53969 H63 150.764 93.1383 126.366 H 0 **** 0.053
53970 H64 148.968 93.3044 126.382 H 0 **** 0.053
53971 H65 150.749 97.2522 122.677 H 0 **** 0.053
53972 H66 149.286 98.1753 123.101 H 0 **** 0.053
53973 H67 152.214 98.8826 123.813 H 0 **** 0.053
53974 H68 151.239 99.6395 122.51 H 0 **** 0.053
53975 H69 151.107 101 124.548 H 0 **** 0.053
53976 H70 149.516 100.333 124.168 H 0 **** 0.053
53977 H71 149.545 100.235 130.143 H 0 **** 0.053
53978 H72 149.866 101.984 126.006 H 0 **** 0.053
53979 H73 148.589 106.993 130.753 H 0 **** 0.053
53980 H74 149.95 107.268 131.856 H 0 **** 0.053
53981 H75 150.453 108.184 129.58 H 0 **** 0.053
53982 H76 151.56 106.854 129.938 H 0 **** 0.053
53983 H77 148.936 106.618 128.337 H 0 **** 0.053
53984 H78 150.552 106.618 127.646 H 0 **** 0.053
53985 H79 149.89 101.425 131.901 H 0 **** 0.1268
53986 H80 149.428 105.392 133.335 H 0 **** 0.1268
53987 H81 149.113 94.7498 131.113 H 0 **** 0.053
53988 H82 150.901 94.4893 131.035 H 0 **** 0.053
53989 H83 150.84 99.7361 131.571 H 0 **** 0.1268
53990 H84 150.104 94.1067 133.248 H 0 **** 0.1268
53991 H85 150.653 95.89 137.068 H 0 **** 0.1268
53992 H86 151.254 100.58 136.147 H 0 **** 0.1268
53993 H87 151.136 100.777 133.688 H 0 **** 0.1268
53994 H88 149.565 90.5617 122.219 H 0 **** 0.41
53995 H89 150.286 92.8504 119.73 H 0 **** 0.053
53996 H90 150.346 94.6126 119.776 H 0 **** 0.053
53997 H91 148.77 93.7736 119.805 H 0 **** 0.053
53998 H92 149.904 93.6164 129.44 H 0 **** 0.41
53999 H93 149.323 92.984 135.38 H 0 **** 0.053
54000 H94 150.053 92.3654 137.679 H 0 **** 0.053
54001 H95 149.296 93.9767 137.7 H 0 **** 0.053
54002 H96 151.078 93.8141 137.774 H 0 **** 0.053
54003 H97 149.487 101.97 133.986 H 0 **** 0.41
54004 H98 150.523 103.82 125.853 H 0 **** 0.41
54005 H99 150.939 97.5588 137.854 H 0 **** 0.41
54006 H100 151.374 100.423 129.969 H 0 **** 0.053
54007 H101 151.609 101.911 126.388 H 0 **** 0.053
54008 H102 151.08 92.845 135.448 H 0 **** 0.053
54009 C1 161.922 144.006 182.47 C.ar 0 **** 0.042
54010 C2 163.16 143.723 183.016 C.ar 0 **** -0.1268
54011 C3 164.234 143.398 182.203 C.ar 0 **** 0
54012 C4 164.094 143.347 180.816 C.ar 0 **** 0
54013 C5 162.841 143.649 180.273 C.ar 0 **** -0.1268
54014 C6 161.757 143.962 181.079 C.ar 0 **** 0
54015 C7 165.389 142.977 180.265 C.ar 0 **** 0
54016 C8 166.269 142.83 181.323 C.ar 0 **** 0
54017 C9 165.628 143.076 182.646 C.3 0 **** -0.106
54018 C10 167.596 142.491 181.083 C.ar 0 **** 0
54019 C11 168.062 142.296 179.766 C.ar 0 **** 0
54020 C12 167.112 142.452 178.72 C.ar 0 **** 0
54021 C13 165.773 142.779 178.963 C.ar 0 **** 0
54022 C14 164.809 142.934 177.82 C.3 0 **** -0.106
54023 C15 165.176 142.003 176.665 C.3 0 **** -0.106
54024 C16 166.553 142.383 176.193 C.3 0 **** -0.106
54025 C17 167.591 142.237 177.286 C.ar 0 **** 0
54026 C18 168.882 141.946 176.984 C.ar 0 **** 0
54027 C19 169.817 141.823 177.973 C.ar 0 **** 0
54028 C20 169.435 141.958 179.499 C.ar 0 **** 0
54029 C21 170.296 141.762 180.652 C.ar 0 **** 0
54030 C22 169.752 142.009 181.917 C.ar 0 **** 0
54031 C23 168.466 142.351 182.152 C.ar 0 **** 0.042
54032 C24 171.264 141.535 177.598 C.3 0 **** -0.106
54033 C25 171.627 141.649 176.088 C.ar 0 **** 0
54034 C26 170.639 141.744 175.14 C.ar 0 **** 0
54035 C27 169.189 141.781 175.498 C.3 0 **** -0.106
54036 C28 170.961 141.792 173.785 C.ar 0 **** 0.042
54037 C29 172.27 141.732 173.34 C.ar 0 **** 0
54038 C30 173.255 141.648 174.312 C.ar 0 **** 0
54039 C31 172.954 141.603 175.671 C.ar 0 **** 0
54040 C32 174.746 141.583 173.942 C.ar 0 **** 0
54041 C33 175.018 141.624 172.435 C.3 0 **** -0.106
54042 C34 173.894 140.993 171.616 C.3 0 **** -0.106
54043 C35 172.612 141.784 171.87 C.3 0 **** -0.106
54044 C36 174.108 141.511 176.649 C.ar 0 **** -0.1268
54045 C37 175.388 141.458 176.193 C.ar 0 **** 0.0265
54046 C38 175.709 141.49 174.892 C.ar 0 **** -0.1268
54047 C39 170.66 141.851 183.08 C.3 0 **** -0.106
54048 C40 171.869 141.402 182.326 C.ar 0 **** 0
54049 C41 171.669 141.352 180.945 C.ar 0 **** 0
54050 C42 172.766 140.887 180.191 C.ar 0 **** -0.1268
54051 C43 173.994 140.544 180.794 C.ar 0 **** 0
54052 C44 174.165 140.627 182.192 C.ar 0 **** 0
54053 C45 173.072 141.055 182.962 C.ar 0 **** 0
54054 C46 173.211 141.114 184.366 C.ar 0 **** -0.1268
54055 C47 174.387 140.769 185.014 C.ar 0 **** 0
54056 C48 175.45 140.346 184.238 C.ar 0 **** -0.1268
54057 C49 175.372 140.265 182.837 C.ar 0 **** 0
54058 C50 176.449 139.825 182.047 C.ar 0 **** 0.042
54059 C51 176.317 139.74 180.675 C.ar 0 **** -0.1268
54060 C52 175.118 140.081 180.055 C.ar 0 **** -0.1268
54061 O53 160.855 144.331 183.273 O.3 0 **** -0.452
54062 C54 160.407 144.288 180.459 C.3 0 **** -0.159
54063 O55 168.048 142.546 183.415 O.3 0 **** -0.452
54064 C56 174.389 140.874 186.535 C.3 0 **** -0.106
54065 C57 175.776 140.647 187.148 C.3 0 **** -0.159
54066 O58 176.377 141.368 177.097 O.3 0 **** -0.4365
54067 O59 170.001 141.893 172.816 O.3 0 **** -0.452
54068 O60 177.649 139.456 182.536 O.3 0 **** -0.452
54069 H61 163.333 143.752 184.117 H 0 **** 0.1268
54070 H62 162.634 143.667 179.194 H 0 **** 0.1268
54071 H63 165.622 142.189 183.305 H 0 **** 0.053
54072 H64 166.058 143.936 183.192 H 0 **** 0.053
54073 H65 163.794 142.683 178.114 H 0 **** 0.053
54074 H66 164.812 143.981 177.444 H 0 **** 0.053
54075 H67 165.132 140.936 176.996 H 0 **** 0.053
54076 H68 164.425 142.1 175.827 H 0 **** 0.053
54077 H69 166.802 141.757 175.327 H 0 **** 0.053
54078 H70 166.53 143.427 175.836 H 0 **** 0.053
54079 H71 171.911 142.248 178.152 H 0 **** 0.053
54080 H72 168.737 142.635 174.982 H 0 **** 0.053
54081 H73 175.149 142.682 172.127 H 0 **** 0.053
54082 H74 175.978 141.12 172.257 H 0 **** 0.053
54083 H75 174.15 141.016 170.549 H 0 **** 0.053
54084 H76 173.762 139.938 171.894 H 0 **** 0.053
54085 H77 172.748 142.832 171.57 H 0 **** 0.053
54086 H78 171.797 141.382 171.279 H 0 **** 0.053
54087 H79 173.876 141.504 177.696 H 0 **** 0.1268
54088 H80 176.734 141.455 174.558 H 0 **** 0.1268
54089 H81 170.855 142.796 183.611 H 0 **** 0.053
54090 H82 170.33 141.075 183.789 H 0 **** 0.053
54091 H83 172.763 140.731 179.122 H 0 **** 0.1268
54092 H84 172.357 141.448 184.984 H 0 **** 0.1268
54093 H85 176.372 140.07 184.742 H 0 **** 0.1268
54094 H86 177.145 139.392 180.036 H 0 **** 0.1268
54095 H87 175.009 139.972 178.939 H 0 **** 0.1268
54096 H88 161.147 144.31 184.174 H 0 **** 0.41
54097 H89 159.588 143.957 181.109 H 0 **** 0.053
54098 H90 160.269 143.789 179.49 H 0 **** 0.053
54099 H91 160.302 145.375 180.31 H 0 **** 0.053
54100 H92 168.76 142.409 184.024 H 0 **** 0.41
54101 H93 174.035 141.865 186.835 H 0 **** 0.053
54102 H94 175.747 140.74 188.252 H 0 **** 0.053
54103 H95 176.512 141.387 186.779 H 0 **** 0.053
54104 H96 176.162 139.635 186.923 H 0 **** 0.053
54105 H97 176.044 141.451 177.976 H 0 **** 0.41
54106 H98 169.144 141.917 173.208 H 0 **** 0.41
54107 H99 177.643 139.54 183.481 H 0 **** 0.41
54108 H100 171.455 140.479 177.877 H 0 **** 0.053
54109 H101 168.707 140.858 175.158 H 0 **** 0.053
54110 H102 173.693 140.139 186.955 H 0 **** 0.053
54111 C1 125.121 109.815 174.797 C.ar 0 **** 0.042
54112 C2 124.282 110.89 174.57 C.ar 0 **** -0.1268
54113 C3 124.732 112.006 173.884 C.ar 0 **** 0
54114 C4 126.041 112.075 173.405 C.ar 0 **** 0
54115 C5 126.877 110.977 173.628 C.ar 0 **** -0.1268
54116 C6 126.44 109.86 174.324 C.ar 0 **** 0
54117 C7 126.191 113.363 172.745 C.ar 0 **** 0
54118 C8 124.977 114.023 172.83 C.ar 0 **** 0
54119 C9 123.942 113.237 173.558 C.3 0 **** -0.106
54120 C10 124.829 115.283 172.261 C.ar 0 **** 0
54121 C11 125.906 115.902 171.592 C.ar 0 **** 0
54122 C12 127.13 115.181 171.544 C.ar 0 **** 0
54123 C13 127.284 113.919 172.128 C.ar 0 **** 0
54124 C14 128.599 113.197 172.046 C.3 0 **** -0.106
54125 C15 129.765 114.187 172.036 C.3 0 **** -0.106
54126 C16 129.613 115.058 170.818 C.3 0 **** -0.106
54127 C17 128.313 115.835 170.833 C.ar 0 **** 0
54128 C18 128.22 117.044 170.222 C.ar 0 **** 0
54129 C19 127.043 117.739 170.231 C.ar 0 **** 0
54130 C20 125.766 117.2 170.988 C.ar 0 **** 0
54131 C21 124.487 117.866 171.159 C.ar 0 **** 0
54132 C22 123.469 117.16 171.81 C.ar 0 **** 0
54133 C23 123.608 115.93 172.351 C.ar 0 **** 0.042
54134 C24 126.961 119.073 169.503 C.3 0 **** -0.106
54135 C25 128.162 119.439 168.583 C.ar 0 **** 0
54136 C26 129.328 118.716 168.64 C.ar 0 **** 0
54137 C27 129.495 117.539 169.544 C.3 0 **** -0.106
54138 C28 130.421 119.075 167.855 C.ar 0 **** 0.042
54139 C29 130.389 120.168 167.007 C.ar 0 **** 0
54140 C30 129.2 120.88 166.954 C.ar 0 **** 0
54141 C31 128.094 120.534 167.726 C.ar 0 **** 0
54142 C32 129.039 122.107 166.043 C.ar 0 **** 0
54143 C33 130.287 122.444 165.223 C.3 0 **** -0.106
54144 C34 131.581 122.063 165.939 C.3 0 **** -0.106
54145 C35 131.578 120.552 166.159 C.3 0 **** -0.106
54146 C36 126.843 121.379 167.588 C.ar 0 **** -0.1268
54147 C37 126.827 122.444 166.744 C.ar 0 **** 0.0265
54148 C38 127.878 122.808 165.996 C.ar 0 **** -0.1268
54149 C39 122.155 117.838 171.932 C.3 0 **** -0.106
54150 C40 122.54 119.13 171.288 C.ar 0 **** 0
54151 C41 123.863 119.151 170.844 C.ar 0 **** 0
54152 C42 124.291 120.368 170.272 C.ar 0 **** -0.1268
54153 C43 123.42 121.467 170.119 C.ar 0 **** 0
54154 C44 122.082 121.4 170.563 C.ar 0 **** 0
54155 C45 121.649 120.208 171.166 C.ar 0 **** 0
54156 C46 120.323 120.132 171.646 C.ar 0 **** -0.1268
54157 C47 119.43 121.188 171.542 C.ar 0 **** 0
54158 C48 119.878 122.353 170.948 C.ar 0 **** -0.1268
54159 C49 121.185 122.491 170.453 C.ar 0 **** 0
54160 C50 121.645 123.679 169.859 C.ar 0 **** 0.042
54161 C51 122.947 123.774 169.407 C.ar 0 **** -0.1268
54162 C52 123.824 122.7 169.538 C.ar 0 **** -0.1268
54163 O53 124.678 108.704 175.475 O.3 0 **** -0.452
54164 C54 127.372 108.68 174.549 C.3 0 **** -0.159
54165 O55 122.563 115.353 172.971 O.3 0 **** -0.452
54166 C56 118.034 120.965 172.112 C.3 0 **** -0.106
54167 C57 117.068 122.112 171.794 C.3 0 **** -0.159
54168 O58 125.696 123.162 166.655 O.3 0 **** -0.4365
54169 O59 131.594 118.37 167.881 O.3 0 **** -0.452
54170 O60 120.894 124.785 169.691 O.3 0 **** -0.452
54171 H61 123.225 110.89 174.925 H 0 **** 0.1268
54172 H62 127.913 110.918 173.266 H 0 **** 0.1268
54173 H63 123.593 113.721 174.488 H 0 **** 0.053
54174 H64 123.069 112.97 172.934 H 0 **** 0.053
54175 H65 128.753 112.543 172.9 H 0 **** 0.053
54176 H66 128.651 112.58 171.122 H 0 **** 0.053
54177 H67 129.773 114.789 172.977 H 0 **** 0.053
54178 H68 130.75 113.634 172.012 H 0 **** 0.053
54179 H69 130.476 115.733 170.771 H 0 **** 0.053
54180 H70 129.657 114.419 169.918 H 0 **** 0.053
54181 H71 126.047 119.065 168.873 H 0 **** 0.053
54182 H72 129.881 116.708 168.946 H 0 **** 0.053
54183 H73 130.231 121.911 164.253 H 0 **** 0.053
54184 H74 130.255 123.517 164.997 H 0 **** 0.053
54185 H75 132.446 122.358 165.332 H 0 **** 0.053
54186 H76 131.662 122.595 166.897 H 0 **** 0.053
54187 H77 131.517 120.029 165.195 H 0 **** 0.053
54188 H78 132.499 120.238 166.639 H 0 **** 0.053
54189 H79 125.983 121.096 168.164 H 0 **** 0.1268
54190 H80 127.837 123.655 165.33 H 0 **** 0.1268
54191 H81 121.354 117.339 171.365 H 0 **** 0.053
54192 H82 121.843 117.998 172.977 H 0 **** 0.053
54193 H83 125.295 120.575 169.932 H 0 **** 0.1268
54194 H84 119.97 119.2 172.124 H 0 **** 0.1268
54195 H85 119.182 123.185 170.869 H 0 **** 0.1268
54196 H86 123.331 124.698 168.944 H 0 **** 0.1268
54197 H87 124.894 122.802 169.202 H 0 **** 0.1268
54198 H88 123.773 108.849 175.717 H 0 **** 0.41
54199 H89 127.16 108.19 175.506 H 0 **** 0.053
54200 H90 128.427 108.988 174.574 H 0 **** 0.053
54201 H91 127.247 107.931 173.751 H 0 **** 0.053
54202 H92 121.808 115.925 172.949 H 0 **** 0.41
54203 H93 117.616 120.037 171.708 H 0 **** 0.053
54204 H94 116.061 121.917 172.211 H 0 **** 0.053
54205 H95 116.945 122.253 170.702 H 0 **** 0.053
54206 H96 117.413 123.07 172.227 H 0 **** 0.053
54207 H97 125.006 122.779 167.173 H 0 **** 0.41
54208 H98 131.533 117.66 168.498 H 0 **** 0.41
54209 H99 120.023 124.63 170.034 H 0 **** 0.41
54210 H100 126.932 119.856 170.289 H 0 **** 0.053
54211 H101 130.218 117.784 170.331 H 0 **** 0.053
54212 H102 118.096 120.847 173.2 H 0 **** 0.053
54213 C1 118.628 177.128 149.381 C.ar 0 **** 0.042
54214 C2 117.422 177.087 148.707 C.ar 0 **** -0.1268
54215 C3 117.387 176.997 147.325 C.ar 0 **** 0
54216 C4 118.565 176.948 146.578 C.ar 0 **** 0
54217 C5 119.78 176.975 147.271 C.ar 0 **** -0.1268
54218 C6 119.825 177.077 148.654 C.ar 0 **** 0
54219 C7 118.183 176.87 145.176 C.ar 0 **** 0
54220 C8 116.801 176.849 145.117 C.ar 0 **** 0
54221 C9 116.164 176.937 146.461 C.3 0 **** -0.106
54222 C10 116.16 176.755 143.886 C.ar 0 **** 0
54223 C11 116.904 176.671 142.69 C.ar 0 **** 0
54224 C12 118.32 176.704 142.813 C.ar 0 **** 0
54225 C13 118.963 176.824 144.049 C.ar 0 **** 0
54226 C14 120.458 176.861 144.125 C.3 0 **** -0.106
54227 C15 121.069 177.498 142.881 C.3 0 **** -0.106
54228 C16 120.655 176.674 141.69 C.3 0 **** -0.106
54229 C17 119.15 176.618 141.532 C.ar 0 **** 0
54230 C18 118.583 176.482 140.305 C.ar 0 **** 0
54231 C19 117.225 176.424 140.169 C.ar 0 **** 0
54232 C20 116.257 176.561 141.41 C.ar 0 **** 0
54233 C21 114.806 176.611 141.406 C.ar 0 **** 0
54234 C22 114.155 176.664 142.644 C.ar 0 **** 0
54235 C23 114.776 176.742 143.841 C.ar 0 **** 0.042
54236 C24 116.623 176.233 138.785 C.3 0 **** -0.106
54237 C25 117.613 175.866 137.642 C.ar 0 **** 0
54238 C26 118.969 175.97 137.833 C.ar 0 **** 0
54239 C27 119.561 176.398 139.136 C.3 0 **** -0.106
54240 C28 119.854 175.693 136.793 C.ar 0 **** 0.042
54241 C29 119.414 175.321 135.535 C.ar 0 **** 0
54242 C30 118.042 175.211 135.363 C.ar 0 **** 0
54243 C31 117.141 175.477 136.391 C.ar 0 **** 0
54244 C32 117.432 174.8 134.015 C.ar 0 **** 0
54245 C33 118.467 174.533 132.921 C.3 0 **** -0.106
54246 C34 119.729 175.376 133.075 C.3 0 **** -0.106
54247 C35 120.379 175.023 134.412 C.3 0 **** -0.106
54248 C36 115.663 175.323 136.094 C.ar 0 **** -0.1268
54249 C37 115.25 174.95 134.854 C.ar 0 **** 0.0265
54250 C38 116.091 174.696 133.842 C.ar 0 **** -0.1268
54251 C39 112.672 176.665 142.622 C.3 0 **** -0.106
54252 C40 112.498 176.659 141.138 C.ar 0 **** 0
54253 C41 113.707 176.626 140.442 C.ar 0 **** 0
54254 C42 113.598 176.668 139.036 C.ar 0 **** -0.1268
54255 C43 112.347 176.694 138.385 C.ar 0 **** 0
54256 C44 111.145 176.706 139.124 C.ar 0 **** 0
54257 C45 111.235 176.698 140.525 C.ar 0 **** 0
54258 C46 110.045 176.743 141.283 C.ar 0 **** -0.1268
54259 C47 108.789 176.79 140.697 C.ar 0 **** 0
54260 C48 108.722 176.8 139.316 C.ar 0 **** -0.1268
54261 C49 109.871 176.76 138.508 C.ar 0 **** 0
54262 C50 109.805 176.781 137.104 C.ar 0 **** 0.042
54263 C51 110.963 176.762 136.352 C.ar 0 **** -0.1268
54264 C52 112.211 176.728 136.97 C.ar 0 **** -0.1268
54265 O53 118.666 177.216 150.752 O.3 0 **** -0.452
54266 C54 121.161 177.103 149.38 C.3 0 **** -0.159
54267 O55 114.047 176.808 144.968 O.3 0 **** -0.452
54268 C56 107.593 176.844 141.641 C.3 0 **** -0.106
54269 C57 106.25 176.713 140.913 C.3 0 **** -0.159
54270 O58 113.93 174.834 134.636 O.3 0 **** -0.4365
54271 O59 121.21 175.78 136.952 O.3 0 **** -0.452
54272 O60 108.659 176.827 136.398 O.3 0 **** -0.452
54273 H61 116.449 177.12 149.249 H 0 **** 0.1268
54274 H62 120.761 176.905 146.781 H 0 **** 0.1268
54275 H63 115.556 177.849 146.601 H 0 **** 0.053
54276 H64 115.561 176.049 146.723 H 0 **** 0.053
54277 H65 120.813 177.42 144.984 H 0 **** 0.053
54278 H66 120.837 175.83 144.211 H 0 **** 0.053
54279 H67 120.73 178.558 142.788 H 0 **** 0.053
54280 H68 122.195 177.537 142.968 H 0 **** 0.053
54281 H69 121.128 177.105 140.798 H 0 **** 0.053
54282 H70 121.057 175.652 141.801 H 0 **** 0.053
54283 H71 115.868 175.422 138.847 H 0 **** 0.053
54284 H72 120.328 175.668 139.413 H 0 **** 0.053
54285 H73 118.74 173.462 132.963 H 0 **** 0.053
54286 H74 117.977 174.707 131.954 H 0 **** 0.053
54287 H75 120.421 175.168 132.25 H 0 **** 0.053
54288 H76 119.484 176.446 133.031 H 0 **** 0.053
54289 H77 120.641 173.957 134.436 H 0 **** 0.053
54290 H78 121.297 175.584 134.546 H 0 **** 0.053
54291 H79 114.971 175.504 136.894 H 0 **** 0.1268
54292 H80 115.737 174.394 132.869 H 0 **** 0.1268
54293 H81 112.23 175.763 143.074 H 0 **** 0.053
54294 H82 112.23 177.571 143.065 H 0 **** 0.053
54295 H83 114.432 176.71 138.35 H 0 **** 0.1268
54296 H84 110.102 176.739 142.387 H 0 **** 0.1268
54297 H85 107.74 176.842 138.854 H 0 **** 0.1268
54298 H86 110.936 176.784 135.25 H 0 **** 0.1268
54299 H87 113.149 176.752 136.348 H 0 **** 0.1268
54300 H88 117.774 177.237 151.071 H 0 **** 0.41
54301 H89 121.104 177.724 150.282 H 0 **** 0.053
54302 H90 121.961 177.52 148.753 H 0 **** 0.053
54303 H91 121.453 176.086 149.688 H 0 **** 0.053
54304 H92 113.122 176.788 144.765 H 0 **** 0.41
54305 H93 107.669 176.036 142.376 H 0 **** 0.053
54306 H94 105.402 176.744 141.625 H 0 **** 0.053
54307 H95 106.176 175.756 140.361 H 0 **** 0.053
54308 H96 106.093 177.537 140.193 H 0 **** 0.053
54309 H97 113.441 174.946 135.435 H 0 **** 0.41
54310 H98 121.419 176.05 137.832 H 0 **** 0.41
54311 H99 107.922 176.845 136.995 H 0 **** 0.41
54312 H100 116.18 177.209 138.5 H 0 **** 0.053
54313 H101 120.025 177.384 139.018 H 0 **** 0.053
54314 H102 107.603 177.79 142.195 H 0 **** 0.053
54315 C1 124.746 183.974 125.49 C.ar 0 **** 0.042
54316 C2 124.209 182.865 126.117 C.ar 0 **** -0.1268
54317 C3 124.131 181.65 125.457 C.ar 0 **** 0
54318 C4 124.587 181.514 124.144 C.ar 0 **** 0
54319 C5 125.136 182.639 123.523 C.ar 0 **** -0.1268
54320 C6 125.21 183.861 124.172 C.ar 0 **** 0
54321 C7 124.361 180.132 123.75 C.ar 0 **** 0
54322 C8 123.795 179.475 124.829 C.ar 0 **** 0
54323 C9 123.591 180.365 126.006 C.3 0 **** -0.106
54324 C10 123.487 178.122 124.735 C.ar 0 **** 0
54325 C11 123.746 177.405 123.548 C.ar 0 **** 0
54326 C12 124.321 178.134 122.471 C.ar 0 **** 0
54327 C13 124.619 179.498 122.56 C.ar 0 **** 0
54328 C14 125.228 180.222 121.393 C.3 0 **** -0.106
54329 C15 124.749 179.624 120.07 C.3 0 **** -0.106
54330 C16 125.19 178.186 120.033 C.3 0 **** -0.106
54331 C17 124.603 177.381 121.173 C.ar 0 **** 0
54332 C18 124.363 176.052 121.033 C.ar 0 **** 0
54333 C19 123.84 175.327 122.067 C.ar 0 **** 0
54334 C20 123.445 176.003 123.439 C.ar 0 **** 0
54335 C21 122.801 175.383 124.583 C.ar 0 **** 0
54336 C22 122.612 176.166 125.727 C.ar 0 **** 0
54337 C23 122.923 177.477 125.824 C.ar 0 **** 0.042
54338 C24 123.62 173.832 121.891 C.3 0 **** -0.106
54339 C25 124.242 173.181 120.621 C.ar 0 **** 0
54340 C26 124.727 173.966 119.604 C.ar 0 **** 0
54341 C27 124.721 175.458 119.674 C.3 0 **** -0.106
54342 C28 125.235 173.385 118.444 C.ar 0 **** 0.042
54343 C29 125.26 172.013 118.26 C.ar 0 **** 0
54344 C30 124.777 171.237 119.302 C.ar 0 **** 0
54345 C31 124.269 171.797 120.472 C.ar 0 **** 0
54346 C32 124.759 169.702 119.219 C.ar 0 **** 0
54347 C33 125.319 169.14 117.908 C.3 0 **** -0.106
54348 C34 125.09 170.075 116.722 C.3 0 **** -0.106
54349 C35 125.812 171.391 117 C.3 0 **** -0.106
54350 C36 123.766 170.856 121.548 C.ar 0 **** -0.1268
54351 C37 123.804 169.512 121.351 C.ar 0 **** 0.0265
54352 C38 124.277 168.942 120.234 C.ar 0 **** -0.1268
54353 C39 121.997 175.502 126.902 C.3 0 **** -0.106
54354 C40 121.775 174.164 126.276 C.ar 0 **** 0
54355 C41 122.233 174.09 124.959 C.ar 0 **** 0
54356 C42 122.004 172.861 124.306 C.ar 0 **** -0.1268
54357 C43 121.395 171.771 124.962 C.ar 0 **** 0
54358 C44 120.963 171.877 126.301 C.ar 0 **** 0
54359 C45 121.153 173.104 126.956 C.ar 0 **** 0
54360 C46 120.701 173.243 128.287 C.ar 0 **** -0.1268
54361 C47 120.079 172.21 128.972 C.ar 0 **** 0
54362 C48 119.897 171.012 128.306 C.ar 0 **** -0.1268
54363 C49 120.327 170.814 126.985 C.ar 0 **** 0
54364 C50 120.145 169.599 126.302 C.ar 0 **** 0.042
54365 C51 120.555 169.461 124.992 C.ar 0 **** -0.1268
54366 C52 121.161 170.521 124.325 C.ar 0 **** -0.1268
54367 O53 124.839 185.179 126.143 O.3 0 **** -0.452
54368 C54 125.814 185.066 123.474 C.3 0 **** -0.159
54369 O55 122.679 178.137 126.969 O.3 0 **** -0.452
54370 C56 119.634 172.503 130.4 C.3 0 **** -0.106
54371 C57 119.121 171.257 131.133 C.3 0 **** -0.159
54372 O58 123.339 168.718 122.33 O.3 0 **** -0.4365
54373 O59 125.733 174.137 117.416 O.3 0 **** -0.452
54374 O60 119.576 168.504 126.833 O.3 0 **** -0.452
54375 H61 123.834 182.913 127.164 H 0 **** 0.1268
54376 H62 125.55 182.631 122.505 H 0 **** 0.1268
54377 H63 122.53 180.489 126.287 H 0 **** 0.053
54378 H64 124.173 180.062 126.896 H 0 **** 0.053
54379 H65 124.949 181.271 121.38 H 0 **** 0.053
54380 H66 126.338 180.158 121.428 H 0 **** 0.053
54381 H67 123.64 179.719 119.978 H 0 **** 0.053
54382 H68 125.183 180.198 119.199 H 0 **** 0.053
54383 H69 124.901 177.765 119.062 H 0 **** 0.053
54384 H70 126.293 178.152 120.08 H 0 **** 0.053
54385 H71 124.048 173.315 122.776 H 0 **** 0.053
54386 H72 125.727 175.81 119.426 H 0 **** 0.053
54387 H73 126.407 168.965 118.034 H 0 **** 0.053
54388 H74 124.855 168.158 117.743 H 0 **** 0.053
54389 H75 125.475 169.615 115.804 H 0 **** 0.053
54390 H76 124.014 170.246 116.571 H 0 **** 0.053
54391 H77 126.888 171.212 117.13 H 0 **** 0.053
54392 H78 125.696 172.07 116.163 H 0 **** 0.053
54393 H79 123.4 171.289 122.459 H 0 **** 0.1268
54394 H80 124.302 167.871 120.108 H 0 **** 0.1268
54395 H81 122.677 175.425 127.764 H 0 **** 0.053
54396 H82 121.039 175.954 127.207 H 0 **** 0.053
54397 H83 122.239 172.651 123.273 H 0 **** 0.1268
54398 H84 120.842 174.204 128.814 H 0 **** 0.1268
54399 H85 119.402 170.207 128.841 H 0 **** 0.1268
54400 H86 120.408 168.519 124.44 H 0 **** 0.1268
54401 H87 121.463 170.408 123.246 H 0 **** 0.1268
54402 H88 124.456 185.08 127.003 H 0 **** 0.41
54403 H89 125.319 185.983 123.808 H 0 **** 0.053
54404 H90 125.698 185.012 122.383 H 0 **** 0.053
54405 H91 126.887 185.157 123.708 H 0 **** 0.053
54406 H92 122.294 177.555 127.61 H 0 **** 0.41
54407 H93 120.47 172.924 130.967 H 0 **** 0.053
54408 H94 118.815 171.49 132.171 H 0 **** 0.053
54409 H95 119.9 170.474 131.2 H 0 **** 0.053
54410 H96 118.235 170.826 130.634 H 0 **** 0.053
54411 H97 123.119 169.218 123.1 H 0 **** 0.41
54412 H98 125.665 175.056 117.622 H 0 **** 0.41
54413 H99 119.283 168.694 127.715 H 0 **** 0.41
54414 H100 122.524 173.686 121.8 H 0 **** 0.053
54415 H101 124.009 175.853 118.939 H 0 **** 0.053
54416 H102 118.839 173.257 130.381 H 0 **** 0.053
54417 C1 148.736 166.876 146.598 C.ar 0 **** 0.042
54418 C2 147.997 167.965 147.023 C.ar 0 **** -0.1268
54419 C3 148.617 169.047 147.626 C.ar 0 **** 0
54420 C4 149.998 169.067 147.822 C.ar 0 **** 0
54421 C5 150.737 167.966 147.377 C.ar 0 **** -0.1268
54422 C6 150.125 166.873 146.783 C.ar 0 **** 0
54423 C7 150.323 170.325 148.476 C.ar 0 **** 0
54424 C8 149.143 171.029 148.643 C.ar 0 **** 0
54425 C9 147.954 170.293 148.129 C.3 0 **** -0.106
54426 C10 149.161 172.288 149.233 C.ar 0 **** 0
54427 C11 150.375 172.862 149.666 C.ar 0 **** 0
54428 C12 151.553 172.09 149.477 C.ar 0 **** 0
54429 C13 151.534 170.817 148.895 C.ar 0 **** 0
54430 C14 152.809 170.043 148.717 C.3 0 **** -0.106
54431 C15 153.804 170.363 149.832 C.3 0 **** -0.106
54432 C16 154.115 171.833 149.758 C.3 0 **** -0.106
54433 C17 152.879 172.687 149.946 C.ar 0 **** 0
54434 C18 152.968 173.928 150.491 C.ar 0 **** 0
54435 C19 151.851 174.698 150.653 C.ar 0 **** 0
54436 C20 150.414 174.169 150.267 C.ar 0 **** 0
54437 C21 149.138 174.833 150.467 C.ar 0 **** 0
54438 C22 147.991 174.2 149.977 C.ar 0 **** 0
54439 C23 147.973 172.982 149.391 C.ar 0 **** 0.042
54440 C24 151.99 176.099 151.23 C.3 0 **** -0.106
54441 C25 153.438 176.654 151.367 C.ar 0 **** 0
54442 C26 154.52 175.822 151.219 C.ar 0 **** 0
54443 C27 154.373 174.373 150.887 C.3 0 **** -0.106
54444 C28 155.814 176.307 151.394 C.ar 0 **** 0.042
54445 C29 156.065 177.625 151.734 C.ar 0 **** 0
54446 C30 154.961 178.453 151.868 C.ar 0 **** 0
54447 C31 153.66 177.99 151.693 C.ar 0 **** 0
54448 C32 155.112 179.938 152.236 C.ar 0 **** 0
54449 C33 156.563 180.391 152.427 C.3 0 **** -0.106
54450 C34 157.464 179.274 152.949 C.3 0 **** -0.106
54451 C35 157.47 178.143 151.923 C.3 0 **** -0.106
54452 C36 152.526 178.981 151.863 C.ar 0 **** -0.1268
54453 C37 152.792 180.272 152.193 C.ar 0 **** 0.0265
54454 C38 154.032 180.747 152.377 C.ar 0 **** -0.1268
54455 C39 146.703 174.916 150.147 C.3 0 **** -0.106
54456 C40 147.236 176.099 150.89 C.ar 0 **** 0
54457 C41 148.619 176.059 151.071 C.ar 0 **** 0
54458 C42 149.164 177.132 151.808 C.ar 0 **** -0.1268
54459 C43 148.367 178.193 152.285 C.ar 0 **** 0
54460 C44 146.974 178.209 152.064 C.ar 0 **** 0
54461 C45 146.41 177.132 151.36 C.ar 0 **** 0
54462 C46 145.016 177.12 151.146 C.ar 0 **** -0.1268
54463 C47 144.191 178.14 151.59 C.ar 0 **** 0
54464 C48 144.757 179.177 152.301 C.ar 0 **** -0.1268
54465 C49 146.137 179.243 152.548 C.ar 0 **** 0
54466 C50 146.72 180.304 153.264 C.ar 0 **** 0.042
54467 C51 148.081 180.322 153.489 C.ar 0 **** -0.1268
54468 C52 148.891 179.29 153.022 C.ar 0 **** -0.1268
54469 O53 148.126 165.801 145.996 O.3 0 **** -0.452
54470 C54 150.956 165.691 146.307 C.3 0 **** -0.159
54471 O55 146.806 172.461 148.973 O.3 0 **** -0.452
54472 C56 142.714 177.984 151.307 C.3 0 **** -0.106
54473 C57 141.871 179.195 151.709 C.3 0 **** -0.159
54474 O58 151.754 181.112 152.342 O.3 0 **** -0.4365
54475 O59 156.913 175.506 151.246 O.3 0 **** -0.452
54476 O60 146.031 181.344 153.771 O.3 0 **** -0.452
54477 H61 146.892 168.007 146.89 H 0 **** 0.1268
54478 H62 151.831 167.896 147.456 H 0 **** 0.1268
54479 H63 147.218 170.042 148.914 H 0 **** 0.053
54480 H64 147.44 170.809 147.296 H 0 **** 0.053
54481 H65 152.636 168.971 148.751 H 0 **** 0.053
54482 H66 153.283 170.287 147.74 H 0 **** 0.053
54483 H67 153.379 170.08 150.826 H 0 **** 0.053
54484 H68 154.744 169.748 149.71 H 0 **** 0.053
54485 H69 154.872 172.061 150.518 H 0 **** 0.053
54486 H70 154.573 172.049 148.776 H 0 **** 0.053
54487 H71 151.425 176.798 150.578 H 0 **** 0.053
54488 H72 155.028 174.154 150.038 H 0 **** 0.053
54489 H73 156.952 180.754 151.454 H 0 **** 0.053
54490 H74 156.554 181.253 153.108 H 0 **** 0.053
54491 H75 158.481 179.654 153.102 H 0 **** 0.053
54492 H76 157.104 178.914 153.923 H 0 **** 0.053
54493 H77 157.851 178.508 150.96 H 0 **** 0.053
54494 H78 158.126 177.342 152.247 H 0 **** 0.053
54495 H79 151.526 178.629 151.702 H 0 **** 0.1268
54496 H80 154.215 181.779 152.63 H 0 **** 0.1268
54497 H81 146.247 175.222 149.192 H 0 **** 0.053
54498 H82 145.973 174.364 150.76 H 0 **** 0.053
54499 H83 150.202 177.228 152.089 H 0 **** 0.1268
54500 H84 144.554 176.276 150.6 H 0 **** 0.1268
54501 H85 144.101 179.962 152.671 H 0 **** 0.1268
54502 H86 148.559 181.141 154.048 H 0 **** 0.1268
54503 H87 149.995 179.297 153.244 H 0 **** 0.1268
54504 H88 147.195 165.975 145.96 H 0 **** 0.41
54505 H89 150.398 164.753 146.409 H 0 **** 0.053
54506 H90 151.881 165.578 146.89 H 0 **** 0.053
54507 H91 151.226 165.81 145.245 H 0 **** 0.053
54508 H92 146.091 173.055 149.154 H 0 **** 0.41
54509 H93 142.544 177.764 150.252 H 0 **** 0.053
54510 H94 140.798 179.045 151.478 H 0 **** 0.053
54511 H95 142.191 180.104 151.163 H 0 **** 0.053
54512 H96 141.936 179.406 152.793 H 0 **** 0.053
54513 H97 150.943 180.699 152.093 H 0 **** 0.41
54514 H98 156.649 174.626 151.029 H 0 **** 0.41
54515 H99 145.11 181.248 153.561 H 0 **** 0.41
54516 H100 151.585 176.054 152.261 H 0 **** 0.053
54517 H101 154.684 173.769 151.748 H 0 **** 0.053
54518 H102 142.409 177.112 151.884 H 0 **** 0.053
54519 C1 163.507 140.446 119.849 C.ar 0 **** 0.042
54520 C2 164.029 139.356 119.177 C.ar 0 **** -0.1268
54521 C3 165.383 139.067 119.243 C.ar 0 **** 0
54522 C4 166.252 139.867 119.987 C.ar 0 **** 0
54523 C5 165.712 140.958 120.673 C.ar 0 **** -0.1268
54524 C6 164.36 141.263 120.603 C.ar 0 **** 0
54525 C7 167.585 139.301 119.844 C.ar 0 **** 0
54526 C8 167.483 138.18 119.04 C.ar 0 **** 0
54527 C9 166.089 137.925 118.579 C.3 0 **** -0.106
54528 C10 168.614 137.426 118.748 C.ar 0 **** 0
54529 C11 169.875 137.79 119.267 C.ar 0 **** 0
54530 C12 169.921 138.956 120.08 C.ar 0 **** 0
54531 C13 168.785 139.722 120.362 C.ar 0 **** 0
54532 C14 168.888 140.945 121.23 C.3 0 **** -0.106
54533 C15 170.249 141.62 121.062 C.3 0 **** -0.106
54534 C16 171.303 140.634 121.487 C.3 0 **** -0.106
54535 C17 171.277 139.375 120.646 C.ar 0 **** 0
54536 C18 172.41 138.658 120.433 C.ar 0 **** 0
54537 C19 172.38 137.518 119.679 C.ar 0 **** 0
54538 C20 171.053 137.015 118.986 C.ar 0 **** 0
54539 C21 170.892 135.883 118.09 C.ar 0 **** 0
54540 C22 169.599 135.581 117.652 C.ar 0 **** 0
54541 C23 168.495 136.304 117.945 C.ar 0 **** 0.042
54542 C24 173.66 136.717 119.492 C.3 0 **** -0.106
54543 C25 174.87 137.12 120.384 C.ar 0 **** 0
54544 C26 174.849 138.294 121.097 C.ar 0 **** 0
54545 C27 173.671 139.213 121.088 C.3 0 **** -0.106
54546 C28 175.953 138.681 121.853 C.ar 0 **** 0.042
54547 C29 177.109 137.922 121.907 C.ar 0 **** 0
54548 C30 177.108 136.736 121.19 C.ar 0 **** 0
54549 C31 176.014 136.327 120.432 C.ar 0 **** 0
54550 C32 178.33 135.803 121.179 C.ar 0 **** 0
54551 C33 179.509 136.306 122.019 C.3 0 **** -0.106
54552 C34 179.582 137.83 122.077 C.3 0 **** -0.106
54553 C35 178.302 138.349 122.728 C.3 0 **** -0.106
54554 C36 176.119 135.012 119.687 C.ar 0 **** -0.1268
54555 C37 177.261 134.278 119.756 C.ar 0 **** 0.0265
54556 C38 178.334 134.647 120.469 C.ar 0 **** -0.1268
54557 C39 169.447 134.392 116.777 C.3 0 **** -0.106
54558 C40 170.893 134.025 116.693 C.ar 0 **** 0
54559 C41 171.719 134.867 117.439 C.ar 0 **** 0
54560 C42 173.099 134.591 117.354 C.ar 0 **** -0.1268
54561 C43 173.599 133.508 116.602 C.ar 0 **** 0
54562 C44 172.73 132.666 115.876 C.ar 0 **** 0
54563 C45 171.354 132.946 115.922 C.ar 0 **** 0
54564 C46 170.471 132.135 115.177 C.ar 0 **** -0.1268
54565 C47 170.907 131.07 114.404 C.ar 0 **** 0
54566 C48 172.265 130.814 114.369 C.ar 0 **** -0.1268
54567 C49 173.194 131.586 115.087 C.ar 0 **** 0
54568 C50 174.577 131.334 115.043 C.ar 0 **** 0.042
54569 C51 175.454 132.134 115.749 C.ar 0 **** -0.1268
54570 C52 174.985 133.204 116.507 C.ar 0 **** -0.1268
54571 O53 162.165 140.735 119.789 O.3 0 **** -0.452
54572 C54 163.801 142.455 121.364 C.3 0 **** -0.159
54573 O55 167.302 135.929 117.453 O.3 0 **** -0.452
54574 C56 169.839 130.289 113.646 C.3 0 **** -0.106
54575 C57 170.39 129.031 112.966 C.3 0 **** -0.159
54576 O58 177.311 133.123 119.071 O.3 0 **** -0.4365
54577 O59 175.962 139.84 122.58 O.3 0 **** -0.452
54578 O60 175.147 130.339 114.335 O.3 0 **** -0.452
54579 H61 163.383 138.68 118.571 H 0 **** 0.1268
54580 H62 166.303 141.63 121.31 H 0 **** 0.1268
54581 H63 165.968 137.99 117.482 H 0 **** 0.053
54582 H64 165.673 136.965 118.937 H 0 **** 0.053
54583 H65 168.137 141.686 120.971 H 0 **** 0.053
54584 H66 168.756 140.677 122.302 H 0 **** 0.053
54585 H67 170.393 141.95 120.005 H 0 **** 0.053
54586 H68 170.302 142.559 121.69 H 0 **** 0.053
54587 H69 172.279 141.13 121.425 H 0 **** 0.053
54588 H70 171.142 140.379 122.549 H 0 **** 0.053
54589 H71 173.432 135.65 119.701 H 0 **** 0.053
54590 H72 173.417 139.443 122.128 H 0 **** 0.053
54591 H73 179.407 135.903 123.048 H 0 **** 0.053
54592 H74 180.426 135.873 121.597 H 0 **** 0.053
54593 H75 180.459 138.141 122.659 H 0 **** 0.053
54594 H76 179.701 138.247 121.067 H 0 **** 0.053
54595 H77 178.203 137.943 123.744 H 0 **** 0.053
54596 H78 178.333 139.43 122.814 H 0 **** 0.053
54597 H79 175.265 134.686 119.125 H 0 **** 0.1268
54598 H80 179.224 134.04 120.513 H 0 **** 0.1268
54599 H81 168.861 133.583 117.24 H 0 **** 0.053
54600 H82 169.046 134.634 115.779 H 0 **** 0.053
54601 H83 173.879 135.177 117.819 H 0 **** 0.1268
54602 H84 169.386 132.347 115.202 H 0 **** 0.1268
54603 H85 172.613 129.984 113.759 H 0 **** 0.1268
54604 H86 176.542 131.958 115.727 H 0 **** 0.1268
54605 H87 175.712 133.874 117.048 H 0 **** 0.1268
54606 H88 161.748 140.084 119.24 H 0 **** 0.41
54607 H89 162.964 142.908 120.82 H 0 **** 0.053
54608 H90 164.554 143.243 121.506 H 0 **** 0.053
54609 H91 163.431 142.144 122.354 H 0 **** 0.053
54610 H92 167.393 135.151 116.919 H 0 **** 0.41
54611 H93 169.042 129.991 114.335 H 0 **** 0.053
54612 H94 169.591 128.48 112.432 H 0 **** 0.053
54613 H95 170.835 128.331 113.698 H 0 **** 0.053
54614 H96 171.164 129.277 112.214 H 0 **** 0.053
54615 H97 176.473 132.916 118.689 H 0 **** 0.41
54616 H98 175.143 140.297 122.475 H 0 **** 0.41
54617 H99 174.472 129.847 113.885 H 0 **** 0.41
54618 H100 173.985 136.887 118.445 H 0 **** 0.053
54619 H101 173.938 140.14 120.568 H 0 **** 0.053
54620 H102 169.386 130.932 112.883 H 0 **** 0.053
54621 C 109.814 126.178 176.004 C.3 0 **** 0.054
54622 C 110.772 125.514 174.973 C.3 0 **** -0.106
54623 C 112.244 125.947 175.217 C.3 0 **** -0.053
54624 C 112.257 127.45 175.585 C.3 0 **** -0.053
54625 C 111.373 127.7 176.843 C.3 0 **** 0.054
54626 O 110.526 126.603 177.155 O.3 0 **** -0.32
54627 C 111.793 128.321 174.38 C.3 0 **** -0.053
54628 C 112.293 127.756 172.995 C.3 0 **** 0.107
54629 C 113.514 126.865 173.192 C.3 0 **** -0.106
54630 C 113.187 125.619 174.032 C.3 0 **** -0.106
54631 O 112.657 128.764 172.046 O.3 0 **** -0.32
54632 C 111.717 129.827 172.059 C.3 0 **** 0.107
54633 C 112 130.675 173.327 C.3 0 **** -0.053
54634 C 112.242 129.784 174.572 C.3 0 **** -0.106
54635 C 110.981 131.745 173.624 C.2 0 **** 0
54636 C 109.542 131.411 173.255 C.3 0 **** 0
54637 C 109.359 130.558 172.001 C.3 0 **** 0
54638 C 110.279 129.351 171.859 C.3 0 **** -0.053
54639 C 107.917 130.229 171.671 C.3 0 **** 0
54640 C 107.078 131.5 171.59 C.3 0 **** 0
54641 C 107.236 132.292 172.941 C.3 0 **** 0.16
54642 C 108.674 132.653 173.243 C.3 0 **** 0
54643 C 108.836 133.577 174.481 C.3 0 **** -0.106
54644 C 110.268 134.08 174.384 C.3 0 **** -0.106
54645 C 111.275 132.96 174.145 C.2 0 **** -0.1268
54646 O 106.313 133.356 173.263 O.3 0 **** -0.32
54647 C 105.382 133.591 172.228 C.3 0 **** 0.16
54648 C 104.665 132.331 171.639 C.3 0 **** 0
54649 C 105.596 131.136 171.311 C.3 0 **** 0
54650 C 110.025 128.691 170.528 C.2 0 **** 0
54651 C 108.656 128.074 170.462 C.3 0 **** -0.053
54652 C 107.722 129.318 170.447 C.3 0 **** 0
54653 C 108.322 127.243 169.243 C.2 0 **** 0
54654 C 109.108 127.38 168.143 C.2 0 **** 0
54655 C 110.399 128.185 168.122 C.3 0 **** -0.106
54656 C 110.823 128.749 169.469 C.2 0 **** -0.1268
54657 C 108.852 126.56 166.9 C.3 0 **** -0.106
54658 C 107.353 126.356 166.732 C.3 0 **** -0.106
54659 C 106.76 125.908 168.057 C.2 0 **** 0
54660 C 107.275 126.356 169.247 C.2 0 **** 0
54661 C 106.619 125.934 170.548 C.3 0 **** -0.106
54662 C 105.706 124.724 170.41 C.3 0 **** -0.053
54663 C 104.731 124.95 169.243 C.3 0 **** -0.106
54664 C 105.516 125.054 167.931 C.3 0 **** -0.106
54665 C 105.485 130.375 169.983 C.3 0 **** 0.147
54666 C 106.229 129.054 170.113 C.3 0 **** -0.053
54667 C 103.608 132.632 170.571 C.3 0 **** 0
54668 C 102.907 131.421 169.942 C.3 0 **** 0.147
54669 S 103.816 130.005 169.37 S.3 0 **** -0.294
54670 C 101.789 131.755 168.993 C.3 0 **** -0.053
54671 C 100.796 132.683 169.705 C.3 0 **** 0
54672 C 101.497 133.985 170.253 C.3 0 **** 0
54673 C 102.603 133.601 171.256 C.3 0 **** 0
54674 C 100.449 134.854 170.935 C.3 0 **** 0
54675 C 99.3707 135.222 169.936 C.3 0 **** 0
54676 C 98.6502 133.963 169.295 C.3 0 **** 0
54677 C 99.7315 133.041 168.621 C.3 0 **** -0.053
54678 C 97.6718 134.494 168.21 C.3 0 **** 0
54679 C 96.566 135.227 168.937 C.3 0 **** 0.16
54680 C 97.0835 136.365 169.823 C.3 0 **** 0
54681 C 98.4654 136.326 170.408 C.3 0 **** 0
54682 C 103.274 134.81 171.961 C.3 0 **** 0
54683 C 104.352 134.411 172.963 C.3 0 **** -0.053
54684 C 100.952 135.975 171.871 C.3 0 **** 0
54685 C 102.438 136.093 172.221 C.3 0 **** 0
54686 C 98.7569 137.128 171.677 C.3 0 **** 0
54687 C 100.275 137.347 171.821 C.3 0 **** 0
54688 C 96.2224 137.601 170.084 C.3 0 **** 0
54689 C 96.6212 138.326 171.408 C.3 0 **** 0
54690 C 98.135 138.545 171.585 C.3 0 **** 0
54691 O 95.5751 135.58 167.996 O.3 0 **** -0.32
54692 C 94.7606 134.409 167.958 C.3 0 **** 0.107
54693 C 95.6338 133.15 167.652 C.3 0 **** -0.053
54694 C 97.0141 133.573 167.154 C.3 0 **** 0.107
54695 C 94.9365 132.244 166.627 C.3 0 **** -0.106
54696 C 93.4253 132.186 166.917 C.3 0 **** -0.106
54697 C 92.7655 133.542 166.6 C.3 0 **** 0.134
54698 C 93.7133 134.73 166.913 C.3 0 **** -0.053
54699 C 92.9374 136.008 167.319 C.3 0 **** -0.106
54700 C 91.6347 136.092 166.534 C.3 0 **** -0.106
54701 C 90.741 134.845 166.814 C.3 0 **** 0.081
54702 N 91.4821 133.667 167.261 N.3 0 **** -0.727
54703 C 102.685 136.92 173.511 C.3 0 **** 0.16
54704 C 102.053 138.292 173.345 C.3 0 **** 0.16
54705 C 100.57 138.109 173.191 C.3 0 **** 0
54706 O 102.319 139.198 174.394 O.3 0 **** -0.32
54707 C 103.716 139.219 174.667 C.3 0 **** 0.107
54708 C 104.163 137.839 175.042 C.3 0 **** 0.107
54709 O 104.051 137.033 173.881 O.3 0 **** -0.32
54710 C 103.347 137.257 176.225 C.3 0 **** -0.106
54711 C 102.806 138.376 177.161 C.3 0 **** -0.106
54712 C 103.777 139.573 177.172 C.3 0 **** -0.106
54713 C 103.913 140.229 175.769 C.3 0 **** -0.106
54714 C 98.4078 139.364 172.925 C.3 0 **** 0
54715 C 99.9506 139.542 173.094 C.3 0 **** -0.053
54716 C 95.9617 139.715 171.42 C.3 0 **** 0
54717 C 96.3206 140.526 172.681 C.3 0 **** 0.16
54718 C 97.7672 140.739 172.896 C.3 0 **** -0.053
54719 C 94.407 139.452 171.33 C.3 0 **** 0
54720 C 94.0536 138.668 170.001 C.3 0 **** 0
54721 C 94.7027 137.281 170.123 C.3 0 **** -0.053
54722 O 95.6834 141.754 172.813 O.3 0 **** -0.32
54723 C 94.2965 141.593 172.538 C.3 0 **** 0.16
54724 C 93.8788 140.876 171.186 C.3 0 **** 0
54725 C 92.5353 138.52 169.703 C.3 0 **** -0.053
54726 C 91.8581 139.882 169.846 C.3 0 **** -0.053
54727 C 92.3559 140.729 171.076 C.3 0 **** 0
54728 C 90.4056 139.711 170.134 C.3 0 **** -0.053
54729 C 89.8292 138.578 169.326 C.3 0 **** -0.106
54730 C 90.4153 137.243 169.867 C.3 0 **** -0.106
54731 C 91.7931 137.448 170.53 C.3 0 **** -0.106
54732 C 91.7809 142.124 170.995 C.3 0 **** 0
54733 C 92.2486 143.054 172.153 C.3 0 **** 0
54734 C 93.7109 142.978 172.585 C.3 0 **** 0
54735 C 89.8355 141.078 169.765 C.3 0 **** 0
54736 C 90.2784 142.109 170.82 C.3 0 **** 0
54737 C 105.015 124.366 171.752 C.3 0 **** -0.053
54738 C 103.897 125.347 172.134 C.3 0 **** -0.159
54739 C 104.476 122.931 171.736 C.3 0 **** -0.159
54740 O 97.781 132.44 166.769 O.3 0 **** -0.57
54741 C 94.4082 144.13 173.362 C.3 0 **** -0.053
54742 C 93.4775 145.202 173.937 C.3 0 **** -0.053
54743 C 92.3816 145.558 172.916 C.3 0 **** 0
54744 C 91.5119 144.341 172.473 C.3 0 **** 0
54745 C 90.2731 144.541 171.618 C.3 0 **** 0
54746 C 89.6329 145.897 171.657 C.3 0 **** 0
54747 C 90.2471 146.947 172.616 C.3 0 **** 0
54748 C 91.4715 146.638 173.511 C.3 0 **** -0.053
54749 C 89.4995 148.253 172.848 C.3 0 **** -0.053
54750 C 88.0668 148.384 172.286 C.3 0 **** -0.053
54751 C 87.6354 147.404 171.152 C.3 0 **** 0
54752 C 88.1121 145.943 171.369 C.3 0 **** 0
54753 C 87.7475 145.014 170.146 C.3 0 **** 0
54754 C 88.2487 143.544 170.408 C.3 0 **** 0
54755 C 89.7811 143.523 170.582 C.3 0 **** 0
54756 C 86.2002 145.041 169.935 C.3 0 **** 0
54757 C 85.7537 146.53 169.689 C.3 0 **** -0.053
54758 C 86.1219 147.445 170.874 C.3 0 **** -0.053
54759 C 88.3037 141.109 169.585 C.3 0 **** -0.053
54760 C 87.9262 142.605 169.177 C.3 0 **** 0
54761 C 85.8169 144.131 168.68 C.3 0 **** 0.02
54762 C 86.3905 142.678 168.824 C.3 0 **** 0
54763 C 86.0235 141.627 167.749 C.3 0 **** -0.106
54764 C 85.1005 142.244 166.736 C.3 0 **** -0.106
54765 C 83.9487 142.954 167.439 C.3 0 **** -0.086
54766 C 84.3217 144.03 168.391 C.2 0 **** 0.379
54767 O 83.471 144.795 168.812 O.2 0 **** -0.419
54768 H 109.053 125.465 176.349 H 0 **** 0.053
54769 H 109.269 127.017 175.545 H 0 **** 0.053
54770 H 110.714 124.408 175.014 H 0 **** 0.053
54771 H 110.461 125.779 173.946 H 0 **** 0.053
54772 H 112.589 125.394 176.106 H 0 **** 0.053
54773 H 113.303 127.739 175.799 H 0 **** 0.053
54774 H 110.778 128.624 176.735 H 0 **** 0.053
54775 H 112.006 127.844 177.725 H 0 **** 0.053
54776 H 110.69 128.311 174.402 H 0 **** 0.053
54777 H 111.503 127.122 172.553 H 0 **** 0.053
54778 H 114.297 127.474 173.682 H 0 **** 0.053
54779 H 113.912 126.587 172.204 H 0 **** 0.053
54780 H 114.121 125.175 174.402 H 0 **** 0.053
54781 H 112.719 124.863 173.385 H 0 **** 0.053
54782 H 111.975 130.47 171.216 H 0 **** 0.053
54783 H 112.937 131.21 173.138 H 0 **** 0.053
54784 H 111.79 130.197 175.501 H 0 **** 0.053
54785 H 113.331 129.761 174.75 H 0 **** 0.053
54786 H 109.981 128.62 172.625 H 0 **** 0.053
54787 H 108.112 134.415 174.426 H 0 **** 0.053
54788 H 108.629 133.029 175.424 H 0 **** 0.053
54789 H 110.538 134.66 175.27 H 0 **** 0.053
54790 H 110.325 134.761 173.515 H 0 **** 0.053
54791 H 112.29 133.204 174.442 H 0 **** 0.1268
54792 H 108.475 127.493 171.398 H 0 **** 0.053
54793 H 110.319 129.029 167.373 H 0 **** 0.053
54794 H 111.232 127.523 167.752 H 0 **** 0.053
54795 H 111.798 129.226 169.504 H 0 **** 0.1268
54796 H 109.301 127.032 165.999 H 0 **** 0.053
54797 H 109.355 125.586 167.037 H 0 **** 0.053
54798 H 107.137 125.628 165.925 H 0 **** 0.053
54799 H 106.876 127.309 166.436 H 0 **** 0.053
54800 H 107.408 125.686 171.274 H 0 **** 0.053
54801 H 106.049 126.774 170.991 H 0 **** 0.053
54802 H 106.351 123.862 170.143 H 0 **** 0.053
54803 H 104.17 125.883 169.411 H 0 **** 0.053
54804 H 103.989 124.142 169.168 H 0 **** 0.053
54805 H 104.854 125.444 167.123 H 0 **** 0.053
54806 H 105.828 124.034 167.613 H 0 **** 0.053
54807 H 106.086 128.452 169.151 H 0 **** 0.053
54808 H 101.267 130.871 168.518 H 0 **** 0.053
54809 H 99.244 132.055 168.337 H 0 **** 0.053
54810 H 104.893 135.279 173.441 H 0 **** 0.053
54811 H 94.268 134.297 168.939 H 0 **** 0.053
54812 H 95.7466 132.548 168.577 H 0 **** 0.053
54813 H 96.879 134.216 166.295 H 0 **** 0.053
54814 H 95.1001 132.647 165.604 H 0 **** 0.053
54815 H 95.3984 131.23 166.639 H 0 **** 0.053
54816 H 93.3042 131.944 167.985 H 0 **** 0.053
54817 H 92.9308 131.382 166.35 H 0 **** 0.053
54818 H 92.5766 133.561 165.514 H 0 **** 0.053
54819 H 94.2909 134.962 165.994 H 0 **** 0.053
54820 H 92.6779 135.925 168.384 H 0 **** 0.053
54821 H 93.5679 136.906 167.194 H 0 **** 0.053
54822 H 91.8962 136.149 165.461 H 0 **** 0.053
54823 H 91.0883 137.023 166.76 H 0 **** 0.053
54824 H 90.1886 134.579 165.899 H 0 **** 0.053
54825 H 89.9707 135.09 167.566 H 0 **** 0.053
54826 H 91.6297 133.705 168.25 H 0 **** 0.353
54827 H 104.226 139.511 173.75 H 0 **** 0.053
54828 H 105.211 137.861 175.329 H 0 **** 0.053
54829 H 102.484 136.651 175.877 H 0 **** 0.053
54830 H 103.96 136.545 176.818 H 0 **** 0.053
54831 H 102.64 137.986 178.186 H 0 **** 0.053
54832 H 101.813 138.715 176.802 H 0 **** 0.053
54833 H 104.768 139.195 177.481 H 0 **** 0.053
54834 H 103.47 140.325 177.921 H 0 **** 0.053
54835 H 104.873 140.771 175.689 H 0 **** 0.053
54836 H 103.11 140.992 175.648 H 0 **** 0.053
54837 H 100.14 140.132 174.056 H 0 **** 0.053
54838 H 98.03 141.321 173.804 H 0 **** 0.053
54839 H 94.3821 136.686 169.222 H 0 **** 0.053
54840 H 92.5007 138.215 168.666 H 0 **** 0.053
54841 H 92.0359 140.454 168.915 H 0 **** 0.053
54842 H 90.2119 139.509 171.209 H 0 **** 0.053
54843 H 90.109 138.725 168.266 H 0 **** 0.053
54844 H 88.7195 138.518 169.358 H 0 **** 0.053
54845 H 90.5185 136.516 169.037 H 0 **** 0.053
54846 H 89.7058 136.787 170.585 H 0 **** 0.053
54847 H 92.339 136.489 170.577 H 0 **** 0.053
54848 H 91.6837 137.799 171.565 H 0 **** 0.053
54849 H 105.79 124.414 172.541 H 0 **** 0.053
54850 H 103.513 125.129 173.143 H 0 **** 0.053
54851 H 103.052 125.271 171.43 H 0 **** 0.053
54852 H 104.24 126.394 172.131 H 0 **** 0.053
54853 H 105.277 122.206 171.519 H 0 **** 0.053
54854 H 103.697 122.811 170.966 H 0 **** 0.053
54855 H 104.035 122.662 172.708 H 0 **** 0.053
54856 H 98.6207 132.787 166.473 H 0 **** 0.41
54857 H 95.3142 143.846 173.968 H 0 **** 0.053
54858 H 94.0528 146.104 174.287 H 0 **** 0.053
54859 H 92.0139 147.563 173.848 H 0 **** 0.053
54860 H 89.9625 149.056 173.477 H 0 **** 0.053
54861 H 87.6268 149.412 172.276 H 0 **** 0.053
54862 H 84.6559 146.623 169.471 H 0 **** 0.053
54863 H 85.7603 148.492 170.752 H 0 **** 0.053
54864 H 87.9666 140.379 168.764 H 0 **** 0.053
54865 H 86.9249 141.211 167.266 H 0 **** 0.053
54866 H 85.5481 140.83 168.318 H 0 **** 0.053
54867 H 84.7151 141.477 166.067 H 0 **** 0.053
54868 H 85.6728 142.96 166.112 H 0 **** 0.053
54869 H 83.3815 142.259 168.063 H 0 **** 0.053
54870 H 83.2645 143.489 166.784 H 0 **** 0.053
54871 C 192.79 164.138 139.242 C.3 0 **** 0.054
54872 C 193.12 164.369 140.745 C.3 0 **** -0.106
54873 C 193.851 163.14 141.353 C.3 0 **** -0.053
54874 C 193.201 161.855 140.785 C.3 0 **** -0.053
54875 C 193.285 161.856 139.229 C.3 0 **** 0.054
54876 O 193.619 163.128 138.692 O.3 0 **** -0.32
54877 C 191.731 161.711 141.277 C.3 0 **** -0.053
54878 C 191.537 162.205 142.762 C.3 0 **** 0.107
54879 C 192.864 162.178 143.51 C.3 0 **** -0.106
54880 C 193.888 163.15 142.902 C.3 0 **** -0.106
54881 O 190.607 161.427 143.524 O.3 0 **** -0.32
54882 C 189.463 161.111 142.746 C.3 0 **** 0.107
54883 C 189.872 159.979 141.766 C.3 0 **** -0.053
54884 C 191.251 160.255 141.114 C.3 0 **** -0.106
54885 C 188.843 159.634 140.72 C.2 0 **** 0
54886 C 188.002 160.796 140.21 C.3 0 **** 0
54887 C 187.661 161.873 141.24 C.3 0 **** 0
54888 C 188.802 162.344 142.133 C.3 0 **** -0.053
54889 C 186.837 163.023 140.696 C.3 0 **** 0
54890 C 185.576 162.507 140.012 C.3 0 **** 0
54891 C 185.994 161.47 138.903 C.3 0 **** 0.16
54892 C 186.78 160.304 139.46 C.3 0 **** 0
54893 C 187.058 159.188 138.417 C.3 0 **** -0.106
54894 C 187.527 158.007 139.253 C.3 0 **** -0.106
54895 C 188.611 158.383 140.258 C.2 0 **** -0.1268
54896 O 185.038 161.072 137.896 O.3 0 **** -0.32
54897 C 183.769 161.655 138.098 C.3 0 **** 0.16
54898 C 183.747 163.196 138.37 C.3 0 **** 0
54899 C 184.778 163.696 139.413 C.3 0 **** 0
54900 C 188.265 163.325 143.143 C.2 0 **** 0
54901 C 187.803 164.6 142.494 C.3 0 **** -0.053
54902 C 186.541 164.144 141.707 C.3 0 **** 0
54903 C 187.384 165.735 143.402 C.2 0 **** 0
54904 C 187.112 165.444 144.701 C.2 0 **** 0
54905 C 187.37 164.085 145.335 C.3 0 **** -0.106
54906 C 188.07 163.081 144.433 C.2 0 **** -0.1268
54907 C 186.717 166.532 145.673 C.3 0 **** -0.106
54908 C 185.884 167.577 144.946 C.3 0 **** -0.106
54909 C 186.576 167.952 143.647 C.2 0 **** 0
54910 C 187.303 167.025 142.943 C.2 0 **** 0
54911 C 187.931 167.421 141.62 C.3 0 **** -0.106
54912 C 188.031 168.926 141.414 C.3 0 **** -0.053
54913 C 186.664 169.572 141.695 C.3 0 **** -0.106
54914 C 186.287 169.358 143.165 C.3 0 **** -0.106
54915 C 184.383 164.675 140.526 C.3 0 **** 0.147
54916 C 185.648 165.272 141.124 C.3 0 **** -0.053
54917 C 182.347 163.805 138.51 C.3 0 **** 0
54918 C 182.283 165.308 138.813 C.3 0 **** 0.147
54919 S 183.287 166.053 140.075 S.3 0 **** -0.294
54920 C 180.9 165.896 138.818 C.3 0 **** -0.053
54921 C 180.21 165.551 137.491 C.3 0 **** 0
54922 C 180.174 163.996 137.233 C.3 0 **** 0
54923 C 181.612 163.44 137.189 C.3 0 **** 0
54924 C 179.471 163.736 135.909 C.3 0 **** 0
54925 C 178.061 164.288 135.969 C.3 0 **** 0
54926 C 178.006 165.843 136.279 C.3 0 **** 0
54927 C 178.763 166.124 137.628 C.3 0 **** -0.053
54928 C 176.508 166.229 136.435 C.3 0 **** 0
54929 C 175.876 166.098 135.067 C.3 0 **** 0.16
54930 C 176.028 164.697 134.468 C.3 0 **** 0
54931 C 177.18 163.811 134.847 C.3 0 **** 0
54932 C 181.704 161.938 136.809 C.3 0 **** 0
54933 C 183.135 161.411 136.753 C.3 0 **** -0.053
54934 C 179.653 162.344 135.266 C.3 0 **** 0
54935 C 180.636 161.332 135.86 C.3 0 **** 0
54936 C 177.62 162.712 133.881 C.3 0 **** 0
54937 C 178.443 161.65 134.634 C.3 0 **** 0
54938 C 174.973 164.14 133.512 C.3 0 **** 0
54939 C 175.552 163.028 132.581 C.3 0 **** 0
54940 C 176.391 161.96 133.307 C.3 0 **** 0
54941 O 174.558 166.599 135.137 O.3 0 **** -0.32
54942 C 174.75 167.994 134.905 C.3 0 **** 0.107
54943 C 175.8 168.573 135.908 C.3 0 **** -0.053
54944 C 176.051 167.579 137.04 C.3 0 **** 0.107
54945 C 175.33 169.926 136.463 C.3 0 **** -0.106
54946 C 174.67 170.753 135.344 C.3 0 **** -0.106
54947 C 173.324 170.126 134.935 C.3 0 **** 0.134
54948 C 173.358 168.577 135.029 C.3 0 **** -0.053
54949 C 172.412 167.905 134.003 C.3 0 **** -0.106
54950 C 171.163 168.758 133.818 C.3 0 **** -0.106
54951 C 171.539 170.181 133.305 C.3 0 **** 0.081
54952 N 172.904 170.592 133.628 N.3 0 **** -0.727
54953 C 181.05 160.232 134.845 C.3 0 **** 0.16
54954 C 179.797 159.54 134.332 C.3 0 **** 0.16
54955 C 178.968 160.556 133.599 C.3 0 **** 0
54956 O 180.035 158.424 133.501 O.3 0 **** -0.32
54957 C 180.979 157.557 134.12 C.3 0 **** 0.107
54958 C 182.251 158.31 134.362 C.3 0 **** 0.107
54959 O 181.978 159.287 135.353 O.3 0 **** -0.32
54960 C 182.813 158.95 133.066 C.3 0 **** -0.106
54961 C 182.401 158.146 131.799 C.3 0 **** -0.106
54962 C 182.268 156.649 132.141 C.3 0 **** -0.106
54963 C 181.148 156.385 133.186 C.3 0 **** -0.106
54964 C 176.853 160.842 132.27 C.3 0 **** 0
54965 C 177.728 159.792 133.028 C.3 0 **** -0.053
54966 C 174.378 162.296 131.91 C.3 0 **** 0
54967 C 174.847 161.153 130.987 C.3 0 **** 0.16
54968 C 175.674 160.119 131.645 C.3 0 **** -0.053
54969 C 173.591 163.401 131.099 C.3 0 **** 0
54970 C 173.07 164.535 132.073 C.3 0 **** 0
54971 C 174.315 165.24 132.633 C.3 0 **** -0.053
54972 O 173.849 160.508 130.267 O.3 0 **** -0.32
54973 C 172.991 161.481 129.682 C.3 0 **** 0.16
54974 C 172.381 162.604 130.621 C.3 0 **** 0
54975 C 172.116 165.577 131.424 C.3 0 **** -0.053
54976 C 171.025 164.846 130.645 C.3 0 **** -0.053
54977 C 171.534 163.603 129.823 C.3 0 **** 0
54978 C 170.462 165.73 129.585 C.3 0 **** -0.053
54979 C 170.32 167.143 130.087 C.3 0 **** -0.106
54980 C 171.743 167.743 130.274 C.3 0 **** -0.106
54981 C 172.795 166.648 130.544 C.3 0 **** -0.106
54982 C 170.351 162.842 129.274 C.3 0 **** 0
54983 C 170.753 161.567 128.474 C.3 0 **** 0
54984 C 171.883 160.703 129.028 C.3 0 **** 0
54985 C 169.131 165.055 129.267 C.3 0 **** 0
54986 C 169.401 163.74 128.513 C.3 0 **** 0
54987 C 188.626 169.28 140.027 C.3 0 **** -0.053
54988 C 187.643 169.042 138.871 C.3 0 **** -0.159
54989 C 189.14 170.724 139.993 C.3 0 **** -0.159
54990 O 176.921 168.136 138.017 O.3 0 **** -0.57
54991 C 172.066 159.214 128.619 C.3 0 **** -0.053
54992 C 171.249 158.752 127.408 C.3 0 **** -0.053
54993 C 169.823 159.328 127.477 C.3 0 **** 0
54994 C 169.774 160.887 127.536 C.3 0 **** 0
54995 C 168.453 161.628 127.422 C.3 0 **** 0
54996 C 167.326 160.905 126.746 C.3 0 **** 0
54997 C 167.626 159.5 126.166 C.3 0 **** 0
54998 C 169.024 158.844 126.262 C.3 0 **** -0.053
54999 C 166.578 158.832 125.287 C.3 0 **** -0.053
55000 C 165.359 159.668 124.84 C.3 0 **** -0.053
55001 C 165.019 160.955 125.654 C.3 0 **** 0
55002 C 166.264 161.792 126.051 C.3 0 **** 0
55003 C 165.882 163.022 126.963 C.3 0 **** 0
55004 C 167.172 163.843 127.343 C.3 0 **** 0
55005 C 168.159 162.956 128.128 C.3 0 **** 0
55006 C 164.861 163.922 126.197 C.3 0 **** 0
55007 C 163.6 163.052 125.833 C.3 0 **** -0.053
55008 C 163.97 161.84 124.956 C.3 0 **** -0.053
55009 C 168.134 165.936 128.485 C.3 0 **** -0.053
55010 C 166.815 165.06 128.288 C.3 0 **** 0
55011 C 164.439 165.155 127.118 C.3 0 **** 0.02
55012 C 165.692 165.95 127.629 C.3 0 **** 0
55013 C 165.464 167.243 128.448 C.3 0 **** -0.106
55014 C 163.991 167.513 128.565 C.3 0 **** -0.106
55015 C 163.332 167.433 127.192 C.3 0 **** -0.086
55016 C 163.476 166.145 126.468 C.2 0 **** 0.379
55017 O 162.794 165.919 125.483 O.2 0 **** -0.419
55018 H 192.969 165.049 138.656 H 0 **** 0.053
55019 H 191.725 163.889 139.112 H 0 **** 0.053
55020 H 193.752 165.267 140.892 H 0 **** 0.053
55021 H 192.191 164.578 141.307 H 0 **** 0.053
55022 H 194.886 163.173 140.975 H 0 **** 0.053
55023 H 193.755 160.987 141.189 H 0 **** 0.053
55024 H 192.348 161.485 138.78 H 0 **** 0.053
55025 H 194.078 161.178 138.895 H 0 **** 0.053
55026 H 191.12 162.335 140.601 H 0 **** 0.053
55027 H 191.196 163.257 142.755 H 0 **** 0.053
55028 H 193.243 161.139 143.481 H 0 **** 0.053
55029 H 192.676 162.408 144.571 H 0 **** 0.053
55030 H 194.893 162.888 143.259 H 0 **** 0.053
55031 H 193.682 164.165 143.271 H 0 **** 0.053
55032 H 188.747 160.656 143.433 H 0 **** 0.053
55033 H 189.986 159.073 142.371 H 0 **** 0.053
55034 H 191.295 159.961 140.042 H 0 **** 0.053
55035 H 191.989 159.618 141.633 H 0 **** 0.053
55036 H 189.502 162.91 141.5 H 0 **** 0.053
55037 H 186.128 158.945 137.865 H 0 **** 0.053
55038 H 187.807 159.515 137.665 H 0 **** 0.053
55039 H 187.861 157.186 138.613 H 0 **** 0.053
55040 H 186.659 157.641 139.832 H 0 **** 0.053
55041 H 189.222 157.548 140.586 H 0 **** 0.1268
55042 H 188.582 164.941 141.77 H 0 **** 0.053
55043 H 186.4 163.639 145.707 H 0 **** 0.053
55044 H 188.013 164.229 146.249 H 0 **** 0.053
55045 H 188.371 162.146 144.897 H 0 **** 0.1268
55046 H 186.176 166.119 146.551 H 0 **** 0.053
55047 H 187.648 166.989 146.055 H 0 **** 0.053
55048 H 185.712 168.467 145.584 H 0 **** 0.053
55049 H 184.886 167.161 144.707 H 0 **** 0.053
55050 H 188.947 167.002 141.576 H 0 **** 0.053
55051 H 187.377 166.972 140.773 H 0 **** 0.053
55052 H 188.743 169.309 142.174 H 0 **** 0.053
55053 H 185.902 169.109 141.048 H 0 **** 0.053
55054 H 186.665 170.647 141.465 H 0 **** 0.053
55055 H 185.213 169.613 143.322 H 0 **** 0.053
55056 H 186.871 170.066 143.796 H 0 **** 0.053
55057 H 185.355 166.057 141.902 H 0 **** 0.053
55058 H 180.837 167.003 139.045 H 0 **** 0.053
55059 H 178.892 167.247 137.747 H 0 **** 0.053
55060 H 183.218 160.305 136.537 H 0 **** 0.053
55061 H 175.106 168.128 133.869 H 0 **** 0.053
55062 H 176.752 168.767 135.372 H 0 **** 0.053
55063 H 175.102 167.349 137.503 H 0 **** 0.053
55064 H 174.594 169.757 137.278 H 0 **** 0.053
55065 H 176.187 170.466 136.925 H 0 **** 0.053
55066 H 175.363 170.759 134.487 H 0 **** 0.053
55067 H 174.524 171.802 135.644 H 0 **** 0.053
55068 H 172.573 170.474 135.662 H 0 **** 0.053
55069 H 173.019 168.286 136.045 H 0 **** 0.053
55070 H 172.933 167.865 133.035 H 0 **** 0.053
55071 H 172.179 166.869 134.304 H 0 **** 0.053
55072 H 170.655 168.819 134.797 H 0 **** 0.053
55073 H 170.444 168.274 133.135 H 0 **** 0.053
55074 H 170.845 170.92 133.738 H 0 **** 0.053
55075 H 171.396 170.243 132.212 H 0 **** 0.053
55076 H 173.543 170.245 132.94 H 0 **** 0.353
55077 H 180.567 157.256 135.083 H 0 **** 0.053
55078 H 183.003 157.635 134.762 H 0 **** 0.053
55079 H 182.469 159.997 132.937 H 0 **** 0.053
55080 H 183.92 159.028 133.109 H 0 **** 0.053
55081 H 183.128 158.306 130.977 H 0 **** 0.053
55082 H 181.429 158.521 131.419 H 0 **** 0.053
55083 H 183.231 156.318 132.566 H 0 **** 0.053
55084 H 182.093 156.048 131.229 H 0 **** 0.053
55085 H 181.335 155.434 133.719 H 0 **** 0.053
55086 H 180.177 156.261 132.653 H 0 **** 0.053
55087 H 178.055 158.991 132.28 H 0 **** 0.053
55088 H 176.016 159.296 130.984 H 0 **** 0.053
55089 H 173.952 166.105 133.257 H 0 **** 0.053
55090 H 171.669 166.084 132.269 H 0 **** 0.053
55091 H 170.252 164.513 131.366 H 0 **** 0.053
55092 H 171.095 165.745 128.672 H 0 **** 0.053
55093 H 169.777 167.121 131.051 H 0 **** 0.053
55094 H 169.74 167.808 129.41 H 0 **** 0.053
55095 H 171.739 168.457 131.122 H 0 **** 0.053
55096 H 172.02 168.333 129.379 H 0 **** 0.053
55097 H 173.69 167.09 131.019 H 0 **** 0.053
55098 H 173.133 166.187 129.606 H 0 **** 0.053
55099 H 189.499 168.62 139.867 H 0 **** 0.053
55100 H 188.138 169.192 137.898 H 0 **** 0.053
55101 H 186.795 169.744 138.927 H 0 **** 0.053
55102 H 187.229 168.02 138.877 H 0 **** 0.053
55103 H 189.891 170.898 140.78 H 0 **** 0.053
55104 H 188.317 171.439 140.148 H 0 **** 0.053
55105 H 189.61 170.955 139.025 H 0 **** 0.053
55106 H 177.027 167.459 138.682 H 0 **** 0.41
55107 H 173.1 158.785 128.744 H 0 **** 0.053
55108 H 171.258 157.632 127.307 H 0 **** 0.053
55109 H 168.994 157.727 126.147 H 0 **** 0.053
55110 H 166.744 157.787 124.92 H 0 **** 0.053
55111 H 164.506 159.103 124.388 H 0 **** 0.053
55112 H 162.794 163.648 125.328 H 0 **** 0.053
55113 H 163.086 161.243 124.633 H 0 **** 0.053
55114 H 167.887 166.898 129.063 H 0 **** 0.053
55115 H 165.939 167.18 129.443 H 0 **** 0.053
55116 H 165.987 168.007 127.875 H 0 **** 0.053
55117 H 163.826 168.497 129.002 H 0 **** 0.053
55118 H 163.539 166.772 129.255 H 0 **** 0.053
55119 H 163.775 168.155 126.501 H 0 **** 0.053
55120 H 162.251 167.549 127.189 H 0 **** 0.053
55121 C 155.901 121.257 203.6 C.3 0 **** 0.054
55122 C 154.899 121.207 204.789 C.3 0 **** -0.106
55123 C 155.002 119.857 205.552 C.3 0 **** -0.053
55124 C 155.19 118.723 204.515 C.3 0 **** -0.053
55125 C 156.462 118.992 203.655 C.3 0 **** 0.054
55126 O 156.949 120.32 203.782 O.3 0 **** -0.32
55127 C 153.922 118.567 203.625 C.3 0 **** -0.053
55128 C 152.585 118.804 204.427 C.3 0 **** 0.107
55129 C 152.812 118.582 205.917 C.3 0 **** -0.106
55130 C 153.809 119.595 206.505 C.3 0 **** -0.106
55131 O 151.505 117.951 204.034 O.3 0 **** -0.32
55132 C 151.45 117.831 202.621 C.3 0 **** 0.107
55133 C 152.592 116.869 202.197 C.3 0 **** -0.053
55134 C 153.916 117.187 202.939 C.3 0 **** -0.106
55135 C 152.823 116.762 200.711 C.2 0 **** 0
55136 C 152.582 118.034 199.91 C.3 0 **** 0
55137 C 151.449 118.929 200.409 C.3 0 **** 0
55138 C 151.393 119.182 201.911 C.3 0 **** -0.053
55139 C 151.246 120.194 199.6 C.3 0 **** 0
55140 C 151.069 119.867 198.121 C.3 0 **** 0
55141 C 152.308 119.022 197.643 C.3 0 **** 0.16
55142 C 152.478 117.74 198.427 C.3 0 **** 0
55143 C 153.587 116.81 197.864 C.3 0 **** -0.106
55144 C 153.347 115.48 198.563 C.3 0 **** -0.106
55145 C 153.18 115.623 200.071 C.2 0 **** -0.1268
55146 O 152.555 118.849 196.23 O.3 0 **** -0.32
55147 C 151.559 119.45 195.431 C.3 0 **** 0.16
55148 C 151.163 120.919 195.798 C.3 0 **** 0
55149 C 150.922 121.179 197.305 C.3 0 **** 0
55150 C 150.166 119.997 202.229 C.2 0 **** 0
55151 C 150.254 121.386 201.662 C.3 0 **** -0.053
55152 C 150.15 121.135 200.13 C.3 0 **** 0
55153 C 149.162 122.364 202.034 C.2 0 **** 0
55154 C 148.009 121.865 202.552 C.2 0 **** 0
55155 C 147.818 120.405 202.937 C.3 0 **** -0.106
55156 C 149.061 119.541 202.808 C.2 0 **** -0.1268
55157 C 146.887 122.785 202.975 C.3 0 **** -0.106
55158 C 146.834 123.979 202.033 C.3 0 **** -0.106
55159 C 148.235 124.54 201.861 C.2 0 **** 0
55160 C 149.332 123.716 201.884 C.2 0 **** 0
55161 C 150.71 124.306 201.649 C.3 0 **** -0.106
55162 C 150.769 125.817 201.823 C.3 0 **** -0.053
55163 C 149.643 126.47 201.002 C.3 0 **** -0.106
55164 C 148.284 126.021 201.549 C.3 0 **** -0.106
55165 C 149.703 121.968 197.797 C.3 0 **** 0.147
55166 C 149.94 122.39 199.24 C.3 0 **** -0.053
55167 C 150.134 121.565 194.863 C.3 0 **** 0
55168 C 149.7 122.995 195.207 C.3 0 **** 0.147
55169 S 149.226 123.448 196.857 S.3 0 **** -0.294
55170 C 148.78 123.631 194.206 C.3 0 **** -0.053
55171 C 149.435 123.558 192.821 C.3 0 **** 0
55172 C 149.786 122.076 192.413 C.3 0 **** 0
55173 C 150.759 121.467 193.443 C.3 0 **** 0
55174 C 150.425 122.086 191.031 C.3 0 **** 0
55175 C 149.455 122.685 190.031 C.3 0 **** 0
55176 C 149.01 124.164 190.397 C.3 0 **** 0
55177 C 148.383 124.168 191.84 C.3 0 **** -0.053
55178 C 147.931 124.588 189.361 C.3 0 **** 0
55179 C 148.633 124.729 188.028 C.3 0 **** 0.16
55180 C 149.344 123.445 187.59 C.3 0 **** 0
55181 C 149.852 122.456 188.599 C.3 0 **** 0
55182 C 151.279 120.052 193.073 C.3 0 **** 0
55183 C 152.253 119.474 194.093 C.3 0 **** -0.053
55184 C 151.193 120.819 190.591 C.3 0 **** 0
55185 C 151.436 119.672 191.576 C.3 0 **** 0
55186 C 150.997 121.52 188.212 C.3 0 **** 0
55187 C 151.024 120.305 189.159 C.3 0 **** 0
55188 C 149.514 123.117 186.106 C.3 0 **** 0
55189 C 150.719 122.157 185.849 C.3 0 **** 0
55190 C 150.777 120.94 186.791 C.3 0 **** 0
55191 O 147.717 125.272 187.101 O.3 0 **** -0.32
55192 C 147.864 126.675 187.316 C.3 0 **** 0.107
55193 C 147.655 127.019 188.826 C.3 0 **** -0.053
55194 C 147.03 125.832 189.555 C.3 0 **** 0.107
55195 C 146.785 128.276 188.98 C.3 0 **** -0.106
55196 C 147.17 129.316 187.912 C.3 0 **** -0.106
55197 C 146.737 128.835 186.514 C.3 0 **** 0.134
55198 C 146.852 127.294 186.374 C.3 0 **** -0.053
55199 C 147.153 126.858 184.918 C.3 0 **** -0.106
55200 C 146.443 127.789 183.944 C.3 0 **** -0.106
55201 C 146.919 129.26 184.141 C.3 0 **** 0.081
55202 N 147.455 129.541 185.471 N.3 0 **** -0.727
55203 C 152.605 118.748 191.14 C.3 0 **** 0.16
55204 C 152.318 118.217 189.744 C.3 0 **** 0.16
55205 C 152.276 119.384 188.799 C.3 0 **** 0
55206 O 153.236 117.253 189.277 O.3 0 **** -0.32
55207 C 153.422 116.247 190.267 C.3 0 **** 0.107
55208 C 153.927 116.884 191.525 C.3 0 **** 0.107
55209 O 152.876 117.684 192.04 O.3 0 **** -0.32
55210 C 155.217 117.711 191.289 C.3 0 **** -0.106
55211 C 156.046 117.162 190.093 C.3 0 **** -0.106
55212 C 155.86 115.636 189.976 C.3 0 **** -0.106
55213 C 154.385 115.248 189.675 C.3 0 **** -0.106
55214 C 151.994 119.998 186.377 C.3 0 **** 0
55215 C 152.049 118.792 187.369 C.3 0 **** -0.053
55216 C 150.61 121.61 184.416 C.3 0 **** 0
55217 C 151.742 120.625 184.072 C.3 0 **** 0.16
55218 C 151.846 119.456 184.968 C.3 0 **** -0.053
55219 C 150.643 122.876 183.472 C.3 0 **** 0
55220 C 149.436 123.847 183.802 C.3 0 **** 0
55221 C 149.68 124.383 185.222 C.3 0 **** -0.053
55222 O 151.765 120.164 182.763 O.3 0 **** -0.32
55223 C 151.598 121.263 181.876 C.3 0 **** 0.16
55224 C 150.367 122.235 182.115 C.3 0 **** 0
55225 C 149.249 125.031 182.813 C.3 0 **** -0.053
55226 C 149.273 124.5 181.381 C.3 0 **** -0.053
55227 C 150.365 123.397 181.114 C.3 0 **** 0
55228 C 149.665 125.582 180.433 C.3 0 **** -0.053
55229 C 149.031 126.891 180.822 C.3 0 **** -0.106
55230 C 149.688 127.38 182.145 C.3 0 **** -0.106
55231 C 150.238 126.205 182.98 C.3 0 **** -0.106
55232 C 150.156 122.8 179.743 C.3 0 **** 0
55233 C 151.172 121.67 179.402 C.3 0 **** 0
55234 C 151.51 120.663 180.5 C.3 0 **** 0
55235 C 149.175 125.038 179.094 C.3 0 **** 0
55236 C 150.074 123.863 178.669 C.3 0 **** 0
55237 C 152.182 126.378 201.518 C.3 0 **** -0.053
55238 C 152.514 126.393 200.018 C.3 0 **** -0.159
55239 C 152.365 127.78 202.112 C.3 0 **** -0.159
55240 O 146.737 126.168 190.904 O.3 0 **** -0.57
55241 C 152.115 119.266 180.185 C.3 0 **** -0.053
55242 C 152.614 119.061 178.751 C.3 0 **** -0.053
55243 C 151.625 119.683 177.75 C.3 0 **** 0
55244 C 151.378 121.208 177.971 C.3 0 **** 0
55245 C 150.583 122.022 176.965 C.3 0 **** 0
55246 C 150.5 121.482 175.568 C.3 0 **** 0
55247 C 151.295 120.188 175.256 C.3 0 **** 0
55248 C 152.143 119.458 176.325 C.3 0 **** -0.053
55249 C 151.414 119.732 173.809 C.3 0 **** -0.053
55250 C 150.93 120.692 172.7 C.3 0 **** -0.053
55251 C 149.945 121.833 173.102 C.3 0 **** 0
55252 C 150.302 122.527 174.442 C.3 0 **** 0
55253 C 149.219 123.596 174.861 C.3 0 **** 0
55254 C 149.62 124.275 176.225 C.3 0 **** 0
55255 C 149.704 123.219 177.345 C.3 0 **** 0
55256 C 149.099 124.664 173.727 C.3 0 **** 0
55257 C 148.709 123.932 172.389 C.3 0 **** -0.053
55258 C 149.755 122.875 171.985 C.3 0 **** -0.053
55259 C 149.084 126.088 177.967 C.3 0 **** -0.053
55260 C 148.528 125.325 176.681 C.3 0 **** 0
55261 C 147.984 125.737 174.12 C.3 0 **** 0.02
55262 C 148.262 126.369 175.529 C.3 0 **** 0
55263 C 147.34 127.509 176.024 C.3 0 **** -0.106
55264 C 146.319 127.826 174.967 C.3 0 **** -0.106
55265 C 147.002 128.018 173.618 C.3 0 **** -0.086
55266 C 147.798 126.87 173.115 C.2 0 **** 0.379
55267 O 148.178 126.852 171.957 O.2 0 **** -0.419
55268 H 156.371 122.247 203.524 H 0 **** 0.053
55269 H 155.38 121.087 202.645 H 0 **** 0.053
55270 H 155.071 122.034 205.505 H 0 **** 0.053
55271 H 153.867 121.359 204.42 H 0 **** 0.053
55272 H 155.927 119.905 206.15 H 0 **** 0.053
55273 H 155.307 117.773 205.068 H 0 **** 0.053
55274 H 156.283 118.75 202.593 H 0 **** 0.053
55275 H 157.282 118.344 203.984 H 0 **** 0.053
55276 H 154.011 119.328 202.83 H 0 **** 0.053
55277 H 152.268 119.856 204.305 H 0 **** 0.053
55278 H 153.18 117.547 206.05 H 0 **** 0.053
55279 H 151.84 118.633 206.434 H 0 **** 0.053
55280 H 154.171 119.227 207.474 H 0 **** 0.053
55281 H 153.283 120.539 206.708 H 0 **** 0.053
55282 H 150.524 117.297 202.398 H 0 **** 0.053
55283 H 152.286 115.866 202.517 H 0 **** 0.053
55284 H 154.815 117.083 202.293 H 0 **** 0.053
55285 H 154.029 116.434 203.739 H 0 **** 0.053
55286 H 152.256 119.815 202.169 H 0 **** 0.053
55287 H 153.479 116.712 196.766 H 0 **** 0.053
55288 H 154.598 117.226 198.056 H 0 **** 0.053
55289 H 154.142 114.768 198.327 H 0 **** 0.053
55290 H 152.403 115.061 198.169 H 0 **** 0.053
55291 H 153.386 114.715 200.63 H 0 **** 0.1268
55292 H 151.261 121.809 201.895 H 0 **** 0.053
55293 H 146.981 119.949 202.328 H 0 **** 0.053
55294 H 147.478 120.357 204.01 H 0 **** 0.053
55295 H 148.983 118.526 203.187 H 0 **** 0.1268
55296 H 145.912 122.252 203.01 H 0 **** 0.053
55297 H 147.106 123.123 204.003 H 0 **** 0.053
55298 H 146.132 124.752 202.406 H 0 **** 0.053
55299 H 146.458 123.661 201.043 H 0 **** 0.053
55300 H 151.411 123.853 202.365 H 0 **** 0.053
55301 H 151.086 124.039 200.642 H 0 **** 0.053
55302 H 150.566 126.028 202.893 H 0 **** 0.053
55303 H 149.736 126.164 199.948 H 0 **** 0.053
55304 H 149.708 127.567 201.021 H 0 **** 0.053
55305 H 147.477 126.296 200.831 H 0 **** 0.053
55306 H 148.069 126.58 202.488 H 0 **** 0.053
55307 H 149.065 123.041 199.584 H 0 **** 0.053
55308 H 148.446 124.683 194.448 H 0 **** 0.053
55309 H 148.247 125.245 192.174 H 0 **** 0.053
55310 H 152.595 118.421 193.871 H 0 **** 0.053
55311 H 148.878 126.971 187 H 0 **** 0.053
55312 H 148.636 127.258 189.287 H 0 **** 0.053
55313 H 146.111 125.572 189.048 H 0 **** 0.053
55314 H 145.714 128.003 188.86 H 0 **** 0.053
55315 H 146.887 128.685 190.011 H 0 **** 0.053
55316 H 148.265 129.438 187.951 H 0 **** 0.053
55317 H 146.731 130.303 188.126 H 0 **** 0.053
55318 H 145.67 129.088 186.404 H 0 **** 0.053
55319 H 145.88 126.848 186.668 H 0 **** 0.053
55320 H 148.235 126.962 184.748 H 0 **** 0.053
55321 H 146.888 125.797 184.764 H 0 **** 0.053
55322 H 145.357 127.704 184.134 H 0 **** 0.053
55323 H 146.591 127.466 182.899 H 0 **** 0.053
55324 H 146.076 129.945 183.957 H 0 **** 0.053
55325 H 147.682 129.518 183.386 H 0 **** 0.053
55326 H 148.422 129.29 185.517 H 0 **** 0.353
55327 H 152.448 115.803 190.471 H 0 **** 0.053
55328 H 154.146 116.114 192.26 H 0 **** 0.053
55329 H 154.994 118.781 191.091 H 0 **** 0.053
55330 H 155.851 117.728 192.201 H 0 **** 0.053
55331 H 157.118 117.427 190.202 H 0 **** 0.053
55332 H 155.71 117.644 189.153 H 0 **** 0.053
55333 H 156.152 115.19 190.942 H 0 **** 0.053
55334 H 156.534 115.213 189.208 H 0 **** 0.053
55335 H 154.185 114.211 190.002 H 0 **** 0.053
55336 H 154.224 115.266 188.573 H 0 **** 0.053
55337 H 152.923 118.118 187.066 H 0 **** 0.053
55338 H 152.66 118.743 184.727 H 0 **** 0.053
55339 H 148.876 125.143 185.431 H 0 **** 0.053
55340 H 148.259 125.405 183.036 H 0 **** 0.053
55341 H 148.272 124.085 181.152 H 0 **** 0.053
55342 H 150.766 125.725 180.392 H 0 **** 0.053
55343 H 147.946 126.728 180.964 H 0 **** 0.053
55344 H 149.135 127.691 180.057 H 0 **** 0.053
55345 H 148.943 127.935 182.75 H 0 **** 0.053
55346 H 150.494 128.103 181.916 H 0 **** 0.053
55347 H 150.364 126.514 184.033 H 0 **** 0.053
55348 H 151.23 125.899 182.622 H 0 **** 0.053
55349 H 152.913 125.715 202.018 H 0 **** 0.053
55350 H 153.563 126.687 199.852 H 0 **** 0.053
55351 H 151.875 127.115 199.483 H 0 **** 0.053
55352 H 152.368 125.408 199.547 H 0 **** 0.053
55353 H 152.187 127.778 203.199 H 0 **** 0.053
55354 H 151.663 128.496 201.657 H 0 **** 0.053
55355 H 153.387 128.153 201.941 H 0 **** 0.053
55356 H 146.349 125.385 191.289 H 0 **** 0.41
55357 H 152.692 118.77 181.016 H 0 **** 0.053
55358 H 152.821 117.975 178.538 H 0 **** 0.053
55359 H 152.337 118.38 176.071 H 0 **** 0.053
55360 H 151.919 118.762 173.571 H 0 **** 0.053
55361 H 150.826 120.257 171.675 H 0 **** 0.053
55362 H 148.548 124.645 171.537 H 0 **** 0.053
55363 H 149.533 122.387 171.007 H 0 **** 0.053
55364 H 148.375 126.946 178.254 H 0 **** 0.053
55365 H 146.856 127.251 176.982 H 0 **** 0.053
55366 H 148.025 128.336 176.205 H 0 **** 0.053
55367 H 145.768 128.725 175.239 H 0 **** 0.053
55368 H 145.582 126.999 174.914 H 0 **** 0.053
55369 H 147.736 128.827 173.661 H 0 **** 0.053
55370 H 146.331 128.185 172.778 H 0 **** 0.053
55371 C 145.974 107.536 110.419 C.3 0 **** 0.054
55372 C 146.269 107.773 108.91 C.3 0 **** -0.106
55373 C 147.668 108.419 108.708 C.3 0 **** -0.053
55374 C 147.885 109.472 109.821 C.3 0 **** -0.053
55375 C 147.763 108.802 111.223 C.3 0 **** 0.054
55376 O 147.176 107.51 111.171 O.3 0 **** -0.32
55377 C 146.888 110.658 109.666 C.3 0 **** -0.053
55378 C 146.611 111.025 108.158 C.3 0 **** 0.107
55379 C 147.751 110.537 107.273 C.3 0 **** -0.106
55380 C 147.877 109.004 107.29 C.3 0 **** -0.106
55381 O 146.457 112.427 107.912 O.3 0 **** -0.32
55382 C 145.668 113.029 108.926 C.3 0 **** 0.107
55383 C 146.565 113.172 110.184 C.3 0 **** -0.053
55384 C 147.391 111.887 110.449 C.3 0 **** -0.106
55385 C 145.851 113.616 111.435 C.2 0 **** 0
55386 C 144.419 113.124 111.591 C.3 0 **** 0
55387 C 143.615 112.998 110.298 C.3 0 **** 0
55388 C 144.32 112.337 109.12 C.3 0 **** -0.053
55389 C 142.199 112.49 110.486 C.3 0 **** 0
55390 C 141.452 113.338 111.51 C.3 0 **** 0
55391 C 142.284 113.358 112.847 C.3 0 **** 0.16
55392 C 143.681 113.906 112.659 C.3 0 **** 0
55393 C 144.459 114.092 113.99 C.3 0 **** -0.106
55394 C 145.652 114.953 113.605 C.3 0 **** -0.106
55395 C 146.385 114.436 112.372 C.2 0 **** -0.1268
55396 O 141.664 113.813 114.07 O.3 0 **** -0.32
55397 C 140.34 114.26 113.869 C.3 0 **** 0.16
55398 C 139.407 113.32 113.036 C.3 0 **** 0
55399 C 140.028 112.764 111.73 C.3 0 **** 0
55400 C 143.419 112.388 107.913 C.2 0 **** 0
55401 C 142.197 111.532 108.091 C.3 0 **** -0.053
55402 C 141.4 112.298 109.185 C.3 0 **** 0
55403 C 141.28 111.365 106.899 C.2 0 **** 0
55404 C 141.403 112.246 105.872 C.2 0 **** 0
55405 C 142.518 113.278 105.773 C.3 0 **** -0.106
55406 C 143.572 113.187 106.864 C.2 0 **** -0.1268
55407 C 140.543 112.121 104.636 C.3 0 **** -0.106
55408 C 139.162 111.618 105.033 C.3 0 **** -0.106
55409 C 139.315 110.425 105.96 C.2 0 **** 0
55410 C 140.368 110.343 106.836 C.2 0 **** 0
55411 C 140.454 109.163 107.787 C.3 0 **** -0.106
55412 C 139.581 107.984 107.383 C.3 0 **** -0.053
55413 C 138.152 108.479 107.102 C.3 0 **** -0.106
55414 C 138.167 109.439 105.907 C.3 0 **** -0.106
55415 C 139.251 112.771 110.407 C.3 0 **** 0.147
55416 C 139.94 111.83 109.43 C.3 0 **** -0.053
55417 C 137.959 113.804 112.903 C.3 0 **** 0
55418 C 137.02 112.927 112.064 C.3 0 **** 0.147
55419 S 137.495 112.309 110.467 S.3 0 **** -0.294
55420 C 135.581 113.363 112.058 C.3 0 **** -0.053
55421 C 135.097 113.492 113.508 C.3 0 **** 0
55422 C 135.996 114.482 114.343 C.3 0 **** 0
55423 C 137.453 113.976 114.362 C.3 0 **** 0
55424 C 135.449 114.562 115.761 C.3 0 **** 0
55425 C 134.018 115.06 115.724 C.3 0 **** 0
55426 C 133.056 114.146 114.856 C.3 0 **** 0
55427 C 133.635 114.029 113.399 C.3 0 **** -0.053
55428 C 131.67 114.849 114.809 C.3 0 **** 0
55429 C 131.094 114.779 116.206 C.3 0 **** 0.16
55430 C 132.004 115.414 117.262 C.3 0 **** 0
55431 C 133.492 115.477 117.069 C.3 0 **** 0
55432 C 138.404 114.804 115.268 C.3 0 **** 0
55433 C 139.836 114.279 115.289 C.3 0 **** -0.053
55434 C 136.372 115.155 116.849 C.3 0 **** 0
55435 C 137.832 115.493 116.536 C.3 0 **** 0
55436 C 134.395 115.584 118.297 C.3 0 **** 0
55437 C 135.781 116.116 117.884 C.3 0 **** 0
55438 C 131.41 116.058 118.516 C.3 0 **** 0
55439 C 132.434 116.103 119.694 C.3 0 **** 0
55440 C 133.832 116.618 119.306 C.3 0 **** 0
55441 O 129.768 115.26 116.164 O.3 0 **** -0.32
55442 C 129.03 114.091 115.811 C.3 0 **** 0.107
55443 C 129.612 113.454 114.508 C.3 0 **** -0.053
55444 C 130.556 114.436 113.817 C.3 0 **** 0.107
55445 C 128.479 113.027 113.562 C.3 0 **** -0.106
55446 C 127.321 112.414 114.371 C.3 0 **** -0.106
55447 C 126.61 113.499 115.2 C.3 0 **** 0.134
55448 C 127.602 114.583 115.701 C.3 0 **** -0.053
55449 C 127.155 115.211 117.044 C.3 0 **** -0.106
55450 C 125.635 115.307 117.089 C.3 0 **** -0.106
55451 C 124.989 113.895 116.95 C.3 0 **** 0.081
55452 N 125.839 112.913 116.278 N.3 0 **** -0.727
55453 C 138.709 115.597 117.813 C.3 0 **** 0.16
55454 C 138.097 116.629 118.747 C.3 0 **** 0.16
55455 C 136.739 116.141 119.16 C.3 0 **** 0
55456 O 138.871 116.923 119.891 O.3 0 **** -0.32
55457 C 140.214 117.194 119.506 C.3 0 **** 0.107
55458 C 140.77 116.001 118.792 C.3 0 **** 0.107
55459 O 140.075 115.887 117.561 O.3 0 **** -0.32
55460 C 140.658 114.705 119.636 C.3 0 **** -0.106
55461 C 140.679 115.005 121.162 C.3 0 **** -0.106
55462 C 141.539 116.253 121.445 C.3 0 **** -0.106
55463 C 140.955 117.529 120.776 C.3 0 **** -0.106
55464 C 134.756 116.698 120.601 C.3 0 **** 0
55465 C 136.175 117.191 120.171 C.3 0 **** -0.053
55466 C 131.889 117.053 120.774 C.3 0 **** 0
55467 C 132.848 117.19 121.974 C.3 0 **** 0.16
55468 C 134.208 117.662 121.637 C.3 0 **** -0.053
55469 C 130.5 116.447 121.217 C.3 0 **** 0
55470 C 129.512 116.368 119.982 C.3 0 **** 0
55471 C 130.115 115.35 119.001 C.3 0 **** -0.053
55472 O 132.382 117.953 123.039 O.3 0 **** -0.32
55473 C 131.044 117.57 123.337 C.3 0 **** 0.16
55474 C 129.99 117.539 122.152 C.3 0 **** 0
55475 C 128.049 115.971 120.328 C.3 0 **** -0.053
55476 C 127.556 116.826 121.493 C.3 0 **** -0.053
55477 C 128.62 117.047 122.633 C.3 0 **** 0
55478 C 126.447 116.137 122.21 C.3 0 **** -0.053
55479 C 125.526 115.449 121.237 C.3 0 **** -0.106
55480 C 126.287 114.247 120.608 C.3 0 **** -0.106
55481 C 127.813 114.471 120.61 C.3 0 **** -0.106
55482 C 128.101 118.071 123.616 C.3 0 **** 0
55483 C 129.103 118.389 124.765 C.3 0 **** 0
55484 C 130.582 118.517 124.41 C.3 0 **** 0
55485 C 125.787 117.283 122.973 C.3 0 **** 0
55486 C 126.717 117.726 124.118 C.3 0 **** 0
55487 C 139.659 106.829 108.414 C.3 0 **** -0.053
55488 C 138.901 107.129 109.716 C.3 0 **** -0.159
55489 C 139.166 105.508 107.81 C.3 0 **** -0.159
55490 O 131.008 113.914 112.575 O.3 0 **** -0.57
55491 C 131.592 119.272 125.32 C.3 0 **** -0.053
55492 C 131.095 119.603 126.731 C.3 0 **** -0.053
55493 C 129.638 120.098 126.679 C.3 0 **** 0
55494 C 128.647 119.077 126.038 C.3 0 **** 0
55495 C 127.149 119.322 126.071 C.3 0 **** 0
55496 C 126.635 120.235 127.145 C.3 0 **** 0
55497 C 127.664 120.791 128.161 C.3 0 **** 0
55498 C 129.168 120.433 128.098 C.3 0 **** -0.053
55499 C 127.154 121.537 129.386 C.3 0 **** -0.053
55500 C 125.636 121.523 129.67 C.3 0 **** -0.053
55501 C 124.677 121.165 128.493 C.3 0 **** 0
55502 C 125.178 119.992 127.61 C.3 0 **** 0
55503 C 124.232 119.738 126.372 C.3 0 **** 0
55504 C 124.777 118.541 125.504 C.3 0 **** 0
55505 C 126.187 118.866 124.969 C.3 0 **** 0
55506 C 122.791 119.433 126.89 C.3 0 **** 0
55507 C 122.302 120.652 127.758 C.3 0 **** -0.053
55508 C 123.231 120.914 128.959 C.3 0 **** -0.053
55509 C 124.375 116.97 123.51 C.3 0 **** -0.053
55510 C 123.864 118.295 124.236 C.3 0 **** 0
55511 C 121.814 119.206 125.649 C.3 0 **** 0.02
55512 C 122.361 118.102 124.677 C.3 0 **** 0
55513 C 121.486 117.674 123.475 C.3 0 **** -0.106
55514 C 120.187 118.428 123.505 C.3 0 **** -0.106
55515 C 119.559 118.336 124.891 C.3 0 **** -0.086
55516 C 120.377 118.849 126.018 C.2 0 **** 0.379
55517 O 119.866 119.026 127.111 O.2 0 **** -0.419
55518 H 145.482 106.566 110.576 H 0 **** 0.053
55519 H 145.282 108.301 110.805 H 0 **** 0.053
55520 H 146.225 106.83 108.331 H 0 **** 0.053
55521 H 145.484 108.416 108.469 H 0 **** 0.053
55522 H 148.408 107.618 108.872 H 0 **** 0.053
55523 H 148.899 109.895 109.696 H 0 **** 0.053
55524 H 147.208 109.448 111.925 H 0 **** 0.053
55525 H 148.757 108.657 111.658 H 0 **** 0.053
55526 H 145.947 110.33 110.142 H 0 **** 0.053
55527 H 145.697 110.503 107.818 H 0 **** 0.053
55528 H 148.683 111.011 107.636 H 0 **** 0.053
55529 H 147.591 110.913 106.25 H 0 **** 0.053
55530 H 148.864 108.717 106.902 H 0 **** 0.053
55531 H 147.136 108.576 106.6 H 0 **** 0.053
55532 H 145.473 114.05 108.592 H 0 **** 0.053
55533 H 147.285 113.967 109.962 H 0 **** 0.053
55534 H 147.478 111.637 111.529 H 0 **** 0.053
55535 H 148.421 112.084 110.101 H 0 **** 0.053
55536 H 144.441 111.271 109.367 H 0 **** 0.053
55537 H 143.818 114.604 114.735 H 0 **** 0.053
55538 H 144.75 113.114 114.427 H 0 **** 0.053
55539 H 146.341 115.062 114.446 H 0 **** 0.053
55540 H 145.271 115.961 113.358 H 0 **** 0.053
55541 H 147.414 114.772 112.293 H 0 **** 0.1268
55542 H 142.506 110.537 108.494 H 0 **** 0.053
55543 H 142.081 114.321 105.762 H 0 **** 0.053
55544 H 143.04 113.152 104.782 H 0 **** 0.053
55545 H 144.438 113.833 106.751 H 0 **** 0.1268
55546 H 140.481 113.083 104.082 H 0 **** 0.053
55547 H 141.032 111.394 103.964 H 0 **** 0.053
55548 H 138.557 111.363 104.141 H 0 **** 0.053
55549 H 138.613 112.414 105.572 H 0 **** 0.053
55550 H 141.498 108.819 107.824 H 0 **** 0.053
55551 H 140.198 109.472 108.819 H 0 **** 0.053
55552 H 139.99 107.59 106.43 H 0 **** 0.053
55553 H 137.766 109.004 107.991 H 0 **** 0.053
55554 H 137.463 107.646 106.901 H 0 **** 0.053
55555 H 137.192 109.977 105.841 H 0 **** 0.053
55556 H 138.261 108.848 104.969 H 0 **** 0.053
55557 H 139.321 111.776 108.469 H 0 **** 0.053
55558 H 134.878 112.729 111.439 H 0 **** 0.053
55559 H 133.058 113.224 112.841 H 0 **** 0.053
55560 H 140.555 114.903 115.895 H 0 **** 0.053
55561 H 129.1 113.372 116.645 H 0 **** 0.053
55562 H 130.169 112.531 114.767 H 0 **** 0.053
55563 H 130.014 115.354 113.637 H 0 **** 0.053
55564 H 128.109 113.914 113.004 H 0 **** 0.053
55565 H 128.87 112.319 112.796 H 0 **** 0.053
55566 H 127.754 111.648 115.036 H 0 **** 0.053
55567 H 126.598 111.897 113.72 H 0 **** 0.053
55568 H 125.898 114.003 114.527 H 0 **** 0.053
55569 H 127.639 115.392 114.943 H 0 **** 0.053
55570 H 127.469 114.539 117.856 H 0 **** 0.053
55571 H 127.648 116.186 117.204 H 0 **** 0.053
55572 H 125.319 115.962 116.257 H 0 **** 0.053
55573 H 125.291 115.805 118.011 H 0 **** 0.053
55574 H 124.045 113.978 116.387 H 0 **** 0.053
55575 H 124.708 113.505 117.944 H 0 **** 0.053
55576 H 126.466 112.493 116.934 H 0 **** 0.353
55577 H 140.194 118.034 118.812 H 0 **** 0.053
55578 H 141.819 116.169 118.565 H 0 **** 0.053
55579 H 139.729 114.14 119.409 H 0 **** 0.053
55580 H 141.476 113.996 119.388 H 0 **** 0.053
55581 H 141.049 114.128 121.731 H 0 **** 0.053
55582 H 139.646 115.184 121.522 H 0 **** 0.053
55583 H 142.544 116.066 121.029 H 0 **** 0.053
55584 H 141.663 116.41 122.532 H 0 **** 0.053
55585 H 141.75 118.282 120.625 H 0 **** 0.053
55586 H 140.211 117.991 121.465 H 0 **** 0.053
55587 H 136.833 117.249 121.106 H 0 **** 0.053
55588 H 134.902 117.759 122.498 H 0 **** 0.053
55589 H 129.374 115.223 118.162 H 0 **** 0.053
55590 H 127.491 116.227 119.438 H 0 **** 0.053
55591 H 127.246 117.81 121.089 H 0 **** 0.053
55592 H 126.821 115.381 122.933 H 0 **** 0.053
55593 H 125.232 116.177 120.457 H 0 **** 0.053
55594 H 124.583 115.074 121.693 H 0 **** 0.053
55595 H 125.946 114.095 119.564 H 0 **** 0.053
55596 H 126.032 113.318 121.151 H 0 **** 0.053
55597 H 128.295 113.813 119.864 H 0 **** 0.053
55598 H 128.247 114.212 121.585 H 0 **** 0.053
55599 H 140.726 106.69 108.671 H 0 **** 0.053
55600 H 139.077 106.339 110.463 H 0 **** 0.053
55601 H 137.815 107.182 109.534 H 0 **** 0.053
55602 H 139.209 108.086 110.168 H 0 **** 0.053
55603 H 139.738 105.246 106.906 H 0 **** 0.053
55604 H 138.103 105.576 107.529 H 0 **** 0.053
55605 H 139.274 104.679 108.527 H 0 **** 0.053
55606 H 131.586 114.581 112.211 H 0 **** 0.41
55607 H 132.676 118.989 125.203 H 0 **** 0.053
55608 H 131.78 120.329 127.25 H 0 **** 0.053
55609 H 129.819 121.176 128.635 H 0 **** 0.053
55610 H 127.882 122.011 130.092 H 0 **** 0.053
55611 H 125.265 122.249 130.436 H 0 **** 0.053
55612 H 121.246 120.529 128.121 H 0 **** 0.053
55613 H 122.872 121.733 129.625 H 0 **** 0.053
55614 H 123.659 116.687 122.655 H 0 **** 0.053
55615 H 122.013 117.825 122.516 H 0 **** 0.053
55616 H 121.354 116.603 123.619 H 0 **** 0.053
55617 H 119.506 118.027 122.759 H 0 **** 0.053
55618 H 120.376 119.486 123.233 H 0 **** 0.053
55619 H 119.377 117.296 125.172 H 0 **** 0.053
55620 H 118.645 118.91 125.024 H 0 **** 0.053
55621 C 173.245 97.1791 148.733 C.3 0 **** 0.054
55622 C 173.042 96.726 150.208 C.3 0 **** -0.106
55623 C 172.746 95.2028 150.29 C.3 0 **** -0.053
55624 C 171.807 94.8239 149.119 C.3 0 **** -0.053
55625 C 172.468 95.2047 147.76 C.3 0 **** 0.054
55626 O 173.58 96.0767 147.907 O.3 0 **** -0.32
55627 C 170.413 95.4976 149.284 C.3 0 **** -0.053
55628 C 169.947 95.5681 150.788 C.3 0 **** 0.107
55629 C 170.669 94.5145 151.619 C.3 0 **** -0.106
55630 C 172.187 94.7576 151.664 C.3 0 **** -0.106
55631 O 168.543 95.3657 150.979 O.3 0 **** -0.32
55632 C 167.798 96.0624 149.992 C.3 0 **** 0.107
55633 C 167.911 95.2516 148.673 C.3 0 **** -0.053
55634 C 169.363 94.7756 148.415 C.3 0 **** -0.106
55635 C 167.344 95.9298 147.453 C.2 0 **** 0
55636 C 167.482 97.4451 147.412 C.3 0 **** 0
55637 C 167.375 98.1586 148.759 C.3 0 **** 0
55638 C 168.152 97.546 149.917 C.3 0 **** -0.053
55639 C 167.534 99.6642 148.685 C.3 0 **** 0
55640 C 166.561 100.262 147.675 C.3 0 **** 0
55641 C 166.779 99.5503 146.287 C.3 0 **** 0.16
55642 C 166.577 98.0528 146.36 C.3 0 **** 0
55643 C 166.621 97.3528 144.974 C.3 0 **** -0.106
55644 C 166.061 95.9643 145.242 C.3 0 **** -0.106
55645 C 166.704 95.287 146.447 C.2 0 **** -0.1268
55646 O 166.224 100.132 145.087 O.3 0 **** -0.32
55647 C 165.466 101.293 145.352 C.3 0 **** 0.16
55648 C 166.131 102.36 146.285 C.3 0 **** 0
55649 C 166.782 101.794 147.573 C.3 0 **** 0
55650 C 167.852 98.3179 151.176 C.2 0 **** 0
55651 C 168.395 99.7181 151.116 C.3 0 **** -0.053
55652 C 167.491 100.388 150.042 C.3 0 **** 0
55653 C 168.3 100.559 152.37 C.2 0 **** 0
55654 C 167.442 100.156 153.343 C.2 0 **** 0
55655 C 166.71 98.8227 153.326 C.3 0 **** -0.106
55656 C 167.083 97.9024 152.176 C.2 0 **** -0.1268
55657 C 167.318 100.928 154.633 C.3 0 **** -0.106
55658 C 167.493 102.412 154.356 C.3 0 **** -0.106
55659 C 168.716 102.615 153.478 C.2 0 **** 0
55660 C 169.073 101.679 152.539 C.2 0 **** 0
55661 C 170.266 101.946 151.64 C.3 0 **** -0.106
55662 C 171.189 103.042 152.152 C.3 0 **** -0.053
55663 C 170.357 104.288 152.502 C.3 0 **** -0.106
55664 C 169.396 103.957 153.649 C.3 0 **** -0.106
55665 C 166.551 102.448 148.941 C.3 0 **** 0.147
55666 C 167.601 101.932 149.914 C.3 0 **** -0.053
55667 C 165.311 103.638 146.49 C.3 0 **** 0
55668 C 165.912 104.693 147.427 C.3 0 **** 0.147
55669 S 166.581 104.263 149.015 S.3 0 **** -0.294
55670 C 165.144 105.983 147.506 C.3 0 **** -0.053
55671 C 164.944 106.528 146.085 C.3 0 **** 0
55672 C 164.222 105.484 145.15 C.3 0 **** 0
55673 C 165.063 104.194 145.06 C.3 0 **** 0
55674 C 164.054 106.099 143.768 C.3 0 **** 0
55675 C 163.226 107.363 143.875 C.3 0 **** 0
55676 C 163.858 108.45 144.843 C.3 0 **** 0
55677 C 164.069 107.809 146.264 C.3 0 **** -0.053
55678 C 162.842 109.621 144.948 C.3 0 **** 0
55679 C 162.812 110.299 143.595 C.3 0 **** 0.16
55680 C 162.443 109.344 142.456 C.3 0 **** 0
55681 C 162.734 107.874 142.549 C.3 0 **** 0
55682 C 164.514 103.143 144.058 C.3 0 **** 0
55683 C 165.368 101.882 143.969 C.3 0 **** -0.053
55684 C 163.731 105.144 142.597 C.3 0 **** 0
55685 C 163.745 103.627 142.799 C.3 0 **** 0
55686 C 162.882 107.063 141.261 C.3 0 **** 0
55687 C 162.687 105.565 141.56 C.3 0 **** 0
55688 C 161.713 109.858 141.215 C.3 0 **** 0
55689 C 161.948 108.943 139.972 C.3 0 **** 0
55690 C 161.773 107.437 140.245 C.3 0 **** 0
55691 O 162.025 111.465 143.701 O.3 0 **** -0.32
55692 C 162.973 112.431 144.153 C.3 0 **** 0.107
55693 C 163.693 111.924 145.444 C.3 0 **** -0.053
55694 C 162.947 110.725 146.027 C.3 0 **** 0.107
55695 C 163.809 113.052 146.479 C.3 0 **** -0.106
55696 C 164.15 114.379 145.776 C.3 0 **** -0.106
55697 C 162.95 114.871 144.945 C.3 0 **** 0.134
55698 C 162.15 113.689 144.333 C.3 0 **** -0.053
55699 C 161.471 114.072 142.994 C.3 0 **** -0.106
55700 C 161.015 115.524 143.043 C.3 0 **** -0.106
55701 C 162.227 116.475 143.287 C.3 0 **** 0.081
55702 N 163.364 115.836 143.946 N.3 0 **** -0.727
55703 C 163.891 102.846 141.466 C.3 0 **** 0.16
55704 C 162.769 103.262 140.527 C.3 0 **** 0.16
55705 C 162.929 104.724 140.225 C.3 0 **** 0
55706 O 162.702 102.527 139.324 O.3 0 **** -0.32
55707 C 162.75 101.134 139.608 C.3 0 **** 0.107
55708 C 164.022 100.826 140.338 C.3 0 **** 0.107
55709 O 163.93 101.436 141.615 O.3 0 **** -0.32
55710 C 165.276 101.304 139.563 C.3 0 **** -0.106
55711 C 165.034 101.324 138.026 C.3 0 **** -0.106
55712 C 164.037 100.216 137.632 C.3 0 **** -0.106
55713 C 162.64 100.43 138.279 C.3 0 **** -0.106
55714 C 161.955 106.618 138.89 C.3 0 **** 0
55715 C 161.804 105.096 139.205 C.3 0 **** -0.053
55716 C 160.927 109.324 138.888 C.3 0 **** 0
55717 C 161.058 108.451 137.623 C.3 0 **** 0.16
55718 C 160.916 106.996 137.85 C.3 0 **** -0.053
55719 C 161.194 110.847 138.563 C.3 0 **** 0
55720 C 160.999 111.732 139.861 C.3 0 **** 0
55721 C 162.102 111.317 140.846 C.3 0 **** -0.053
55722 O 160.238 108.799 136.556 O.3 0 **** -0.32
55723 C 160.296 110.208 136.363 C.3 0 **** 0.16
55724 C 160.038 111.149 137.615 C.3 0 **** 0
55725 C 161.043 113.268 139.629 C.3 0 **** -0.053
55726 C 160.128 113.628 138.46 C.3 0 **** -0.053
55727 C 160.201 112.629 137.245 C.3 0 **** 0
55728 C 160.551 114.919 137.848 C.3 0 **** -0.053
55729 C 160.97 115.903 138.908 C.3 0 **** -0.106
55730 C 162.3 115.404 139.542 C.3 0 **** -0.106
55731 C 162.449 113.873 139.43 C.3 0 **** -0.106
55732 C 159.111 112.961 136.253 C.3 0 **** 0
55733 C 159.075 111.999 135.028 C.3 0 **** 0
55734 C 159.298 110.51 135.279 C.3 0 **** 0
55735 C 159.303 115.342 137.078 C.3 0 **** 0
55736 C 159.129 114.42 135.857 C.3 0 **** 0
55737 C 172.358 103.317 151.171 C.3 0 **** -0.053
55738 C 171.922 104.075 149.909 C.3 0 **** -0.159
55739 C 173.504 104.063 151.865 C.3 0 **** -0.159
55740 O 163.526 110.321 147.26 O.3 0 **** -0.57
55741 C 158.831 109.42 134.274 C.3 0 **** -0.053
55742 C 158.431 109.926 132.885 C.3 0 **** -0.053
55743 C 157.602 111.217 133.007 C.3 0 **** 0
55744 C 158.336 112.371 133.757 C.3 0 **** 0
55745 C 157.738 113.766 133.81 C.3 0 **** 0
55746 C 156.763 114.127 132.729 C.3 0 **** 0
55747 C 156.494 113.071 131.628 C.3 0 **** 0
55748 C 157.204 111.696 131.608 C.3 0 **** -0.053
55749 C 155.69 113.48 130.402 C.3 0 **** -0.053
55750 C 155.343 114.974 130.22 C.3 0 **** -0.053
55751 C 155.427 115.902 131.471 C.3 0 **** 0
55752 C 156.661 115.63 132.372 C.3 0 **** 0
55753 C 156.645 116.515 133.678 C.3 0 **** 0
55754 C 157.912 116.208 134.562 C.3 0 **** 0
55755 C 157.92 114.726 134.991 C.3 0 **** 0
55756 C 156.61 118.022 133.268 C.3 0 **** 0
55757 C 155.335 118.27 132.38 C.3 0 **** -0.053
55758 C 155.337 117.396 131.111 C.3 0 **** -0.053
55759 C 159.284 116.823 136.648 C.3 0 **** -0.053
55760 C 157.896 117.058 135.896 C.3 0 **** 0
55761 C 156.561 118.931 134.579 C.3 0 **** 0.02
55762 C 157.736 118.591 135.562 C.3 0 **** 0
55763 C 157.907 119.452 136.837 C.3 0 **** -0.106
55764 C 156.865 120.534 136.857 C.3 0 **** -0.106
55765 C 156.842 121.266 135.52 C.3 0 **** -0.086
55766 C 156.573 120.435 134.32 C.2 0 **** 0.379
55767 O 156.309 120.968 133.255 O.2 0 **** -0.419
55768 H 174.072 97.897 148.653 H 0 **** 0.053
55769 H 172.348 97.696 148.358 H 0 **** 0.053
55770 H 173.93 96.95 150.831 H 0 **** 0.053
55771 H 172.218 97.301 150.669 H 0 **** 0.053
55772 H 173.704 94.688 150.115 H 0 **** 0.053
55773 H 171.637 93.7322 149.159 H 0 **** 0.053
55774 H 171.728 95.6406 147.066 H 0 **** 0.053
55775 H 172.86 94.3076 147.268 H 0 **** 0.053
55776 H 170.519 96.5213 148.885 H 0 **** 0.053
55777 H 170.224 96.5518 151.21 H 0 **** 0.053
55778 H 170.443 93.5262 151.176 H 0 **** 0.053
55779 H 170.236 94.5054 152.632 H 0 **** 0.053
55780 H 172.691 93.841 152 H 0 **** 0.053
55781 H 172.404 95.5262 152.42 H 0 **** 0.053
55782 H 166.751 95.984 150.292 H 0 **** 0.053
55783 H 167.305 94.3491 148.813 H 0 **** 0.053
55784 H 169.658 94.8308 147.344 H 0 **** 0.053
55785 H 169.409 93.7062 148.686 H 0 **** 0.053
55786 H 169.222 97.7 149.712 H 0 **** 0.053
55787 H 165.992 97.9067 144.249 H 0 **** 0.053
55788 H 167.653 97.3349 144.563 H 0 **** 0.053
55789 H 166.144 95.3334 144.353 H 0 **** 0.053
55790 H 164.984 96.0761 145.466 H 0 **** 0.053
55791 H 166.623 94.2045 146.444 H 0 **** 0.1268
55792 H 169.446 99.6841 150.74 H 0 **** 0.053
55793 H 165.592 98.9951 153.319 H 0 **** 0.053
55794 H 166.931 98.2762 154.287 H 0 **** 0.053
55795 H 166.661 96.9021 152.204 H 0 **** 0.1268
55796 H 166.358 100.717 155.149 H 0 **** 0.053
55797 H 168.123 100.567 155.293 H 0 **** 0.053
55798 H 167.572 102.99 155.298 H 0 **** 0.053
55799 H 166.606 102.799 153.819 H 0 **** 0.053
55800 H 170.851 101.019 151.552 H 0 **** 0.053
55801 H 169.934 102.197 150.613 H 0 **** 0.053
55802 H 171.642 102.669 153.093 H 0 **** 0.053
55803 H 169.781 104.602 151.617 H 0 **** 0.053
55804 H 170.994 105.138 152.784 H 0 **** 0.053
55805 H 168.638 104.769 153.753 H 0 **** 0.053
55806 H 169.965 103.937 154.605 H 0 **** 0.053
55807 H 167.478 102.473 150.914 H 0 **** 0.053
55808 H 165.573 106.769 148.197 H 0 **** 0.053
55809 H 164.695 108.518 146.894 H 0 **** 0.053
55810 H 164.952 101.081 143.29 H 0 **** 0.053
55811 H 163.712 112.596 143.351 H 0 **** 0.053
55812 H 164.73 111.622 145.192 H 0 **** 0.053
55813 H 161.921 111.02 146.2 H 0 **** 0.053
55814 H 162.843 113.16 147.02 H 0 **** 0.053
55815 H 164.568 112.786 147.25 H 0 **** 0.053
55816 H 165.016 114.19 145.12 H 0 **** 0.053
55817 H 164.458 115.155 146.494 H 0 **** 0.053
55818 H 162.27 115.391 145.639 H 0 **** 0.053
55819 H 161.352 113.406 145.049 H 0 **** 0.053
55820 H 162.222 113.987 142.195 H 0 **** 0.053
55821 H 160.648 113.374 142.759 H 0 **** 0.053
55822 H 160.28 115.614 143.863 H 0 **** 0.053
55823 H 160.475 115.807 142.123 H 0 **** 0.053
55824 H 161.904 117.327 143.906 H 0 **** 0.053
55825 H 162.566 116.912 142.332 H 0 **** 0.053
55826 H 163.942 115.375 143.272 H 0 **** 0.353
55827 H 161.911 100.903 140.263 H 0 **** 0.053
55828 H 164.104 99.7529 140.489 H 0 **** 0.053
55829 H 165.595 102.321 139.875 H 0 **** 0.053
55830 H 166.153 100.661 139.789 H 0 **** 0.053
55831 H 165.99 101.216 137.475 H 0 **** 0.053
55832 H 164.623 102.309 137.726 H 0 **** 0.053
55833 H 164.448 99.2563 137.991 H 0 **** 0.053
55834 H 163.945 100.139 136.533 H 0 **** 0.053
55835 H 162.095 99.4699 138.344 H 0 **** 0.053
55836 H 162.033 101.092 137.619 H 0 **** 0.053
55837 H 161.932 104.513 138.229 H 0 **** 0.053
55838 H 161.014 106.365 136.942 H 0 **** 0.053
55839 H 162.025 112.003 141.736 H 0 **** 0.053
55840 H 160.634 113.682 140.54 H 0 **** 0.053
55841 H 159.087 113.665 138.838 H 0 **** 0.053
55842 H 161.395 114.789 137.138 H 0 **** 0.053
55843 H 160.171 115.957 139.672 H 0 **** 0.053
55844 H 161.121 116.938 138.532 H 0 **** 0.053
55845 H 162.337 115.694 140.611 H 0 **** 0.053
55846 H 163.157 115.912 139.058 H 0 **** 0.053
55847 H 163.182 113.508 140.173 H 0 **** 0.053
55848 H 162.833 113.586 138.443 H 0 **** 0.053
55849 H 172.756 102.334 150.853 H 0 **** 0.053
55850 H 172.752 104.146 149.188 H 0 **** 0.053
55851 H 171.605 105.101 150.158 H 0 **** 0.053
55852 H 171.081 103.583 149.395 H 0 **** 0.053
55853 H 173.87 103.505 152.742 H 0 **** 0.053
55854 H 173.175 105.055 152.211 H 0 **** 0.053
55855 H 174.355 104.208 151.182 H 0 **** 0.053
55856 H 163.008 109.574 147.555 H 0 **** 0.41
55857 H 159.363 108.428 134.333 H 0 **** 0.053
55858 H 157.907 109.128 132.29 H 0 **** 0.053
55859 H 156.655 110.929 130.998 H 0 **** 0.053
55860 H 155.42 112.713 129.632 H 0 **** 0.053
55861 H 154.572 115.217 129.447 H 0 **** 0.053
55862 H 155.21 119.348 132.092 H 0 **** 0.053
55863 H 154.475 117.598 130.433 H 0 **** 0.053
55864 H 159.362 117.522 137.558 H 0 **** 0.053
55865 H 157.86 118.834 137.751 H 0 **** 0.053
55866 H 158.919 119.845 136.75 H 0 **** 0.053
55867 H 157.072 121.235 137.664 H 0 **** 0.053
55868 H 155.875 120.082 137.068 H 0 **** 0.053
55869 H 157.816 121.711 135.299 H 0 **** 0.053
55870 H 156.069 122.025 135.42 H 0 **** 0.053
55871 C 153.684 194.792 166.931 C.3 0 **** 0.054
55872 C 153.603 195.601 168.258 C.3 0 **** -0.106
55873 C 154.94 196.338 168.548 C.3 0 **** -0.053
55874 C 156.108 195.398 168.164 C.3 0 **** -0.053
55875 C 155.995 194.99 166.664 C.3 0 **** 0.054
55876 O 154.724 195.284 166.102 O.3 0 **** -0.32
55877 C 156.146 194.15 169.093 C.3 0 **** -0.053
55878 C 155.752 194.489 170.582 C.3 0 **** 0.107
55879 C 155.966 195.971 170.865 C.3 0 **** -0.106
55880 C 155.053 196.859 170.002 C.3 0 **** -0.106
55881 O 156.492 193.761 171.567 O.3 0 **** -0.32
55882 C 156.635 192.402 171.183 C.3 0 **** 0.107
55883 C 157.722 192.349 170.077 C.3 0 **** -0.053
55884 C 157.532 193.477 169.03 C.3 0 **** -0.106
55885 C 157.884 191.012 169.4 C.2 0 **** 0
55886 C 156.611 190.194 169.236 C.3 0 **** 0
55887 C 155.589 190.321 170.366 C.3 0 **** 0
55888 C 155.301 191.731 170.867 C.3 0 **** -0.053
55889 C 154.326 189.507 170.163 C.3 0 **** 0
55890 C 154.663 188.044 169.897 C.3 0 **** 0
55891 C 155.646 187.971 168.67 C.3 0 **** 0.16
55892 C 156.923 188.751 168.896 C.3 0 **** 0
55893 C 157.977 188.556 167.772 C.3 0 **** -0.106
55894 C 159.259 189.123 168.363 C.3 0 **** -0.106
55895 C 159.067 190.502 168.983 C.2 0 **** -0.1268
55896 O 155.873 186.708 168.006 O.3 0 **** -0.32
55897 C 155.186 185.642 168.628 C.3 0 **** 0.16
55898 C 153.676 185.886 168.958 C.3 0 **** 0
55899 C 153.36 187.243 169.635 C.3 0 **** 0
55900 C 154.353 191.655 172.036 C.2 0 **** 0
55901 C 152.993 191.165 171.623 C.3 0 **** -0.053
55902 C 153.263 189.676 171.263 C.3 0 **** 0
55903 C 151.897 191.185 172.665 C.2 0 **** 0
55904 C 152.259 191.303 173.969 C.2 0 **** 0
55905 C 153.682 191.586 174.429 C.3 0 **** -0.106
55906 C 154.676 191.846 173.31 C.2 0 **** -0.1268
55907 C 151.216 191.361 175.061 C.3 0 **** -0.106
55908 C 150.042 190.469 174.684 C.3 0 **** -0.106
55909 C 149.638 190.758 173.249 C.2 0 **** 0
55910 C 150.574 191.116 172.311 C.2 0 **** 0
55911 C 150.139 191.339 170.875 C.3 0 **** -0.106
55912 C 148.64 191.544 170.712 C.3 0 **** -0.053
55913 C 147.888 190.419 171.442 C.3 0 **** -0.106
55914 C 148.177 190.499 172.945 C.3 0 **** -0.106
55915 C 152.436 187.333 170.857 C.3 0 **** 0.147
55916 C 152.012 188.782 171.044 C.3 0 **** -0.053
55917 C 152.946 184.682 169.563 C.3 0 **** 0
55918 C 151.472 184.891 169.932 C.3 0 **** 0.147
55919 S 150.929 186.319 170.84 S.3 0 **** -0.294
55920 C 150.756 183.657 170.406 C.3 0 **** -0.053
55921 C 150.928 182.552 169.356 C.3 0 **** 0
55922 C 152.448 182.256 169.058 C.3 0 **** 0
55923 C 153.136 183.533 168.533 C.3 0 **** 0
55924 C 152.536 181.148 168.018 C.3 0 **** 0
55925 C 151.857 179.902 168.549 C.3 0 **** 0
55926 C 150.332 180.129 168.926 C.3 0 **** 0
55927 C 150.231 181.297 169.973 C.3 0 **** -0.053
55928 C 149.815 178.811 169.568 C.3 0 **** 0
55929 C 149.778 177.771 168.469 C.3 0 **** 0.16
55930 C 151.14 177.563 167.799 C.3 0 **** 0
55931 C 152.156 178.666 167.746 C.3 0 **** 0
55932 C 154.606 183.326 168.079 C.3 0 **** 0
55933 C 155.264 184.595 167.547 C.3 0 **** -0.053
55934 C 153.886 180.957 167.291 C.3 0 **** 0
55935 C 155.032 181.951 167.497 C.3 0 **** 0
55936 C 153.218 178.649 166.646 C.3 0 **** 0
55937 C 154.409 179.538 167.052 C.3 0 **** 0
55938 C 151.514 176.206 167.203 C.3 0 **** 0
55939 C 152.603 176.33 166.091 C.3 0 **** 0
55940 C 153.799 177.224 166.464 C.3 0 **** 0
55941 O 149.159 176.61 168.979 O.3 0 **** -0.32
55942 C 147.776 176.88 168.756 C.3 0 **** 0.107
55943 C 147.38 178.251 169.395 C.3 0 **** -0.053
55944 C 148.478 178.727 170.344 C.3 0 **** 0.107
55945 C 146.035 178.139 170.127 C.3 0 **** -0.106
55946 C 145.065 177.261 169.315 C.3 0 **** -0.106
55947 C 145.525 175.792 169.333 C.3 0 **** 0.134
55948 C 147.073 175.674 169.345 C.3 0 **** -0.053
55949 C 147.569 174.383 168.647 C.3 0 **** -0.106
55950 C 146.588 173.247 168.907 C.3 0 **** -0.106
55951 C 145.172 173.606 168.362 C.3 0 **** 0.081
55952 N 144.921 175.041 168.25 N.3 0 **** -0.727
55953 C 156.084 181.896 166.358 C.3 0 **** 0.16
55954 C 156.61 180.473 166.243 C.3 0 **** 0.16
55955 C 155.466 179.581 165.857 C.3 0 **** 0
55956 O 157.677 180.308 165.333 O.3 0 **** -0.32
55957 C 158.676 181.291 165.581 C.3 0 **** 0.107
55958 C 158.07 182.653 165.435 C.3 0 **** 0.107
55959 O 157.152 182.82 166.502 O.3 0 **** -0.32
55960 C 157.39 182.851 164.055 C.3 0 **** -0.106
55961 C 158.05 181.972 162.954 C.3 0 **** -0.106
55962 C 159.55 181.78 163.256 C.3 0 **** -0.106
55963 C 159.783 181.021 164.593 C.3 0 **** -0.106
55964 C 154.875 177.205 165.288 C.3 0 **** 0
55965 C 156.059 178.145 165.681 C.3 0 **** -0.053
55966 C 153.163 174.928 165.8 C.3 0 **** 0
55967 C 154.273 174.948 164.728 C.3 0 **** 0.16
55968 C 155.429 175.813 165.043 C.3 0 **** -0.053
55969 C 151.929 174.061 165.331 C.3 0 **** 0
55970 C 150.828 174.006 166.467 C.3 0 **** 0
55971 C 150.292 175.437 166.63 C.3 0 **** -0.053
55972 O 154.761 173.707 164.336 O.3 0 **** -0.32
55973 C 153.667 172.828 164.1 C.3 0 **** 0.16
55974 C 152.565 172.678 165.232 C.3 0 **** 0
55975 C 149.651 173.025 166.202 C.3 0 **** -0.053
55976 C 150.211 171.668 165.783 C.3 0 **** -0.053
55977 C 151.431 171.746 164.79 C.3 0 **** 0
55978 C 149.198 170.909 164.997 C.3 0 **** -0.053
55979 C 147.821 171.096 165.577 C.3 0 **** -0.106
55980 C 147.378 172.565 165.324 C.3 0 **** -0.106
55981 C 148.587 173.514 165.197 C.3 0 **** -0.106
55982 C 152.029 170.37 164.616 C.3 0 **** 0
55983 C 153.272 170.35 163.677 C.3 0 **** 0
55984 C 154.28 171.489 163.799 C.3 0 **** 0
55985 C 149.714 169.476 165.093 C.3 0 **** 0
55986 C 150.987 169.341 164.237 C.3 0 **** 0
55987 C 148.239 191.711 169.223 C.3 0 **** -0.053
55988 C 148.291 190.395 168.433 C.3 0 **** -0.159
55989 C 146.854 192.353 169.088 C.3 0 **** -0.159
55990 O 148.085 179.916 171.016 O.3 0 **** -0.57
55991 C 155.745 171.359 163.295 C.3 0 **** -0.053
55992 C 156.031 170.156 162.389 C.3 0 **** -0.053
55993 C 155.326 168.901 162.935 C.3 0 **** 0
55994 C 153.779 169.054 163.072 C.3 0 **** 0
55995 C 152.907 167.86 163.418 C.3 0 **** 0
55996 C 153.463 166.502 163.108 C.3 0 **** 0
55997 C 154.842 166.44 162.404 C.3 0 **** 0
55998 C 155.635 167.712 162.02 C.3 0 **** -0.053
55999 C 155.336 165.099 161.878 C.3 0 **** -0.053
56000 C 154.354 163.907 161.881 C.3 0 **** -0.053
56001 C 153.106 163.992 162.814 C.3 0 **** 0
56002 C 152.427 165.386 162.827 C.3 0 **** 0
56003 C 151.239 165.455 163.865 C.3 0 **** 0
56004 C 150.579 166.885 163.846 C.3 0 **** 0
56005 C 151.615 167.959 164.237 C.3 0 **** 0
56006 C 150.188 164.357 163.504 C.3 0 **** 0
56007 C 150.902 162.954 163.526 C.3 0 **** -0.053
56008 C 152.073 162.887 162.526 C.3 0 **** -0.053
56009 C 148.684 168.394 164.708 C.3 0 **** -0.053
56010 C 149.41 166.986 164.907 C.3 0 **** 0
56011 C 148.995 164.391 164.563 C.3 0 **** 0.02
56012 C 148.367 165.825 164.68 C.3 0 **** 0
56013 C 147.125 166.018 165.583 C.3 0 **** -0.106
56014 C 146.723 164.697 166.176 C.3 0 **** -0.106
56015 C 146.633 163.637 165.084 C.3 0 **** -0.086
56016 C 147.869 163.395 164.298 C.2 0 **** 0.379
56017 O 147.952 162.418 163.574 O.2 0 **** -0.419
56018 H 152.752 194.884 166.357 H 0 **** 0.053
56019 H 153.818 193.719 167.138 H 0 **** 0.053
56020 H 152.784 196.347 168.233 H 0 **** 0.053
56021 H 153.349 194.926 169.096 H 0 **** 0.053
56022 H 154.978 197.199 167.861 H 0 **** 0.053
56023 H 157.054 195.946 168.332 H 0 **** 0.053
56024 H 156.239 193.923 166.523 H 0 **** 0.053
56025 H 156.72 195.553 166.065 H 0 **** 0.053
56026 H 155.417 193.435 168.675 H 0 **** 0.053
56027 H 154.675 194.288 170.728 H 0 **** 0.053
56028 H 157.031 196.198 170.671 H 0 **** 0.053
56029 H 155.801 196.153 171.939 H 0 **** 0.053
56030 H 155.438 197.888 170.008 H 0 **** 0.053
56031 H 154.055 196.898 170.46 H 0 **** 0.053
56032 H 157.071 191.889 172.043 H 0 **** 0.053
56033 H 158.679 192.541 170.575 H 0 **** 0.053
56034 H 157.745 193.149 167.989 H 0 **** 0.053
56035 H 158.276 194.261 169.258 H 0 **** 0.053
56036 H 154.758 192.258 170.067 H 0 **** 0.053
56037 H 158.085 187.478 167.537 H 0 **** 0.053
56038 H 157.667 189.064 166.836 H 0 **** 0.053
56039 H 160.056 189.141 167.616 H 0 **** 0.053
56040 H 159.582 188.443 169.173 H 0 **** 0.053
56041 H 159.98 191.084 169.064 H 0 **** 0.1268
56042 H 152.675 191.711 170.703 H 0 **** 0.053
56043 H 154.059 190.737 175.073 H 0 **** 0.053
56044 H 153.672 192.495 175.095 H 0 **** 0.053
56045 H 155.668 192.167 173.613 H 0 **** 0.1268
56046 H 151.641 191.078 176.049 H 0 **** 0.053
56047 H 150.883 192.411 175.144 H 0 **** 0.053
56048 H 149.192 190.611 175.381 H 0 **** 0.053
56049 H 150.34 189.406 174.759 H 0 **** 0.053
56050 H 150.65 192.234 170.49 H 0 **** 0.053
56051 H 150.466 190.5 170.231 H 0 **** 0.053
56052 H 148.387 192.498 171.22 H 0 **** 0.053
56053 H 148.224 189.444 171.054 H 0 **** 0.053
56054 H 146.804 190.473 171.269 H 0 **** 0.053
56055 H 147.833 189.566 173.448 H 0 **** 0.053
56056 H 147.58 191.329 173.385 H 0 **** 0.053
56057 H 151.265 188.841 171.908 H 0 **** 0.053
56058 H 149.669 183.798 170.687 H 0 **** 0.053
56059 H 149.138 181.586 170.091 H 0 **** 0.053
56060 H 156.352 184.478 167.268 H 0 **** 0.053
56061 H 147.597 176.907 167.668 H 0 **** 0.053
56062 H 147.237 179.002 168.591 H 0 **** 0.053
56063 H 148.65 177.95 171.076 H 0 **** 0.053
56064 H 146.195 177.681 171.128 H 0 **** 0.053
56065 H 145.617 179.155 170.314 H 0 **** 0.053
56066 H 145.063 177.642 168.281 H 0 **** 0.053
56067 H 144.032 177.341 169.687 H 0 **** 0.053
56068 H 145.164 175.352 170.276 H 0 **** 0.053
56069 H 147.408 175.639 170.402 H 0 **** 0.053
56070 H 147.585 174.566 167.563 H 0 **** 0.053
56071 H 148.598 174.137 168.963 H 0 **** 0.053
56072 H 146.553 173.082 169.999 H 0 **** 0.053
56073 H 146.946 172.299 168.471 H 0 **** 0.053
56074 H 144.405 173.173 169.024 H 0 **** 0.053
56075 H 145.013 173.137 167.376 H 0 **** 0.053
56076 H 145.272 175.392 167.381 H 0 **** 0.353
56077 H 159.009 181.169 166.611 H 0 **** 0.053
56078 H 158.844 183.409 165.544 H 0 **** 0.053
56079 H 156.307 182.608 164.087 H 0 **** 0.053
56080 H 157.423 183.917 163.745 H 0 **** 0.053
56081 H 157.899 182.419 161.95 H 0 **** 0.053
56082 H 157.554 180.981 162.921 H 0 **** 0.053
56083 H 160.004 182.783 163.337 H 0 **** 0.053
56084 H 160.058 181.26 162.424 H 0 **** 0.053
56085 H 160.786 181.253 164.997 H 0 **** 0.053
56086 H 159.771 179.925 164.394 H 0 **** 0.053
56087 H 156.828 178.125 164.834 H 0 **** 0.053
56088 H 156.228 175.833 164.272 H 0 **** 0.053
56089 H 149.447 175.391 167.372 H 0 **** 0.053
56090 H 149.17 172.928 167.166 H 0 **** 0.053
56091 H 150.522 171.127 166.698 H 0 **** 0.053
56092 H 149.174 171.221 163.931 H 0 **** 0.053
56093 H 147.865 170.883 166.662 H 0 **** 0.053
56094 H 147.053 170.414 165.15 H 0 **** 0.053
56095 H 146.734 172.91 166.158 H 0 **** 0.053
56096 H 146.75 172.615 164.414 H 0 **** 0.053
56097 H 148.272 174.558 165.379 H 0 **** 0.053
56098 H 149.005 173.485 164.182 H 0 **** 0.053
56099 H 148.967 192.408 168.765 H 0 **** 0.053
56100 H 148.115 190.575 167.361 H 0 **** 0.053
56101 H 147.517 189.695 168.788 H 0 **** 0.053
56102 H 149.265 189.889 168.527 H 0 **** 0.053
56103 H 146.814 193.328 169.6 H 0 **** 0.053
56104 H 146.076 191.71 169.528 H 0 **** 0.053
56105 H 146.595 192.52 168.031 H 0 **** 0.053
56106 H 148.82 180.146 171.581 H 0 **** 0.41
56107 H 156.28 172.323 163.063 H 0 **** 0.053
56108 H 157.136 170.003 162.243 H 0 **** 0.053
56109 H 156.733 167.517 161.873 H 0 **** 0.053
56110 H 156.36 165.019 161.434 H 0 **** 0.053
56111 H 154.797 162.896 161.701 H 0 **** 0.053
56112 H 150.194 162.105 163.331 H 0 **** 0.053
56113 H 152.555 161.884 162.478 H 0 **** 0.053
56114 H 147.749 168.453 165.375 H 0 **** 0.053
56115 H 147.31 166.769 166.37 H 0 **** 0.053
56116 H 146.373 166.419 164.906 H 0 **** 0.053
56117 H 145.765 164.793 166.684 H 0 **** 0.053
56118 H 147.468 164.401 166.942 H 0 **** 0.053
56119 H 145.907 163.921 164.318 H 0 **** 0.053
56120 H 146.413 162.63 165.431 H 0 **** 0.053
56121 C 164.675 177.11 104.844 C.3 0 **** 0.054
56122 C 165.33 176.976 106.249 C.3 0 **** -0.106
56123 C 166.547 176.01 106.209 C.3 0 **** -0.053
56124 C 166.196 174.818 105.288 C.3 0 **** -0.053
56125 C 165.829 175.333 103.863 C.3 0 **** 0.054
56126 O 165.585 176.732 103.823 O.3 0 **** -0.32
56127 C 165.046 173.964 105.898 C.3 0 **** -0.053
56128 C 165.138 173.856 107.468 C.3 0 **** 0.107
56129 C 166.562 174.122 107.938 C.3 0 **** -0.106
56130 C 167.017 175.555 107.613 C.3 0 **** -0.106
56131 O 164.752 172.581 107.994 O.3 0 **** -0.32
56132 C 163.591 172.099 107.336 C.3 0 **** 0.107
56133 C 164.035 171.582 105.941 C.3 0 **** -0.053
56134 C 165.016 172.565 105.251 C.3 0 **** -0.106
56135 C 162.912 171.204 105.01 C.2 0 **** 0
56136 C 161.643 172.036 105.129 C.3 0 **** 0
56137 C 161.293 172.516 106.537 C.3 0 **** 0
56138 C 162.435 173.096 107.362 C.3 0 **** -0.053
56139 C 160.034 173.356 106.618 C.3 0 **** 0
56140 C 158.855 172.625 105.984 C.3 0 **** 0
56141 C 159.242 172.234 104.509 C.3 0 **** 0.16
56142 C 160.475 171.361 104.439 C.3 0 **** 0
56143 C 160.777 170.827 103.012 C.3 0 **** -0.106
56144 C 161.807 169.73 103.237 C.3 0 **** -0.106
56145 C 162.958 170.172 104.134 C.2 0 **** -0.1268
56146 O 158.212 171.825 103.581 O.3 0 **** -0.32
56147 C 156.937 171.768 104.183 C.3 0 **** 0.16
56148 C 156.516 173.01 105.037 C.3 0 **** 0
56149 C 157.593 173.526 106.025 C.3 0 **** 0
56150 C 161.929 173.422 108.743 C.2 0 **** 0
56151 C 160.931 174.545 108.724 C.3 0 **** -0.053
56152 C 159.704 173.897 108.02 C.3 0 **** 0
56153 C 160.455 175.082 110.055 C.2 0 **** 0
56154 C 160.668 174.322 111.162 C.2 0 **** 0
56155 C 161.504 173.051 111.165 C.3 0 **** -0.106
56156 C 162.195 172.735 109.848 C.2 0 **** -0.1268
56157 C 160.248 174.809 112.529 C.3 0 **** -0.106
56158 C 158.961 175.611 112.404 C.3 0 **** -0.106
56159 C 159.104 176.609 111.268 C.2 0 **** 0
56160 C 159.852 176.31 110.157 C.2 0 **** 0
56161 C 159.923 177.308 109.017 C.3 0 **** -0.106
56162 C 159.488 178.714 109.405 C.3 0 **** -0.053
56163 C 158.127 178.65 110.118 C.3 0 **** -0.106
56164 C 158.269 177.862 111.425 C.3 0 **** -0.106
56165 C 157.246 173.874 107.479 C.3 0 **** 0.147
56166 C 158.378 174.704 108.066 C.3 0 **** -0.053
56167 C 155.097 172.944 105.613 C.3 0 **** 0
56168 C 154.659 174.126 106.487 C.3 0 **** 0.147
56169 S 155.697 174.777 107.774 S.3 0 **** -0.294
56170 C 153.222 174.091 106.929 C.3 0 **** -0.053
56171 C 152.327 173.931 105.693 C.3 0 **** 0
56172 C 152.704 172.65 104.855 C.3 0 **** 0
56173 C 154.169 172.748 104.382 C.3 0 **** 0
56174 C 151.77 172.558 103.656 C.3 0 **** 0
56175 C 150.337 172.463 104.139 C.3 0 **** 0
56176 C 149.892 173.692 105.038 C.3 0 **** 0
56177 C 150.876 173.816 106.259 C.3 0 **** -0.053
56178 C 148.458 173.39 105.555 C.3 0 **** 0
56179 C 147.537 173.451 104.357 C.3 0 **** 0.16
56180 C 147.94 172.483 103.241 C.3 0 **** 0
56181 C 149.368 172.051 103.066 C.3 0 **** 0
56182 C 154.61 171.601 103.434 C.3 0 **** 0
56183 C 156.056 171.723 102.961 C.3 0 **** -0.053
56184 C 152.186 171.623 102.499 C.3 0 **** 0
56185 C 153.56 170.949 102.494 C.3 0 **** 0
56186 C 149.834 171.57 101.691 C.3 0 **** 0
56187 C 151.124 170.742 101.835 C.3 0 **** 0
56188 C 146.884 171.882 102.313 C.3 0 **** 0
56189 C 147.49 171.434 100.945 C.3 0 **** 0
56190 C 148.789 170.615 101.059 C.3 0 **** 0
56191 O 146.206 173.345 104.815 O.3 0 **** -0.32
56192 C 145.881 174.7 105.122 C.3 0 **** 0.107
56193 C 146.938 175.304 106.102 C.3 0 **** -0.053
56194 C 147.797 174.192 106.702 C.3 0 **** 0.107
56195 C 146.25 176.119 107.206 C.3 0 **** -0.106
56196 C 145.077 176.922 106.614 C.3 0 **** -0.106
56197 C 143.934 175.976 106.198 C.3 0 **** 0.134
56198 C 144.473 174.619 105.672 C.3 0 **** -0.053
56199 C 143.531 173.983 104.619 C.3 0 **** -0.106
56200 C 142.081 174.288 104.972 C.3 0 **** -0.106
56201 C 141.835 175.827 105.008 C.3 0 **** 0.081
56202 N 143.038 176.619 105.258 N.3 0 **** -0.727
56203 C 153.989 170.473 101.08 C.3 0 **** 0.16
56204 C 152.921 169.54 100.531 C.3 0 **** 0.16
56205 C 151.646 170.32 100.388 C.3 0 **** 0
56206 O 153.248 168.924 99.3032 O.3 0 **** -0.32
56207 C 154.549 168.353 99.3839 C.3 0 **** 0.107
56208 C 155.538 169.43 99.7084 C.3 0 **** 0.107
56209 O 155.269 169.862 101.032 O.3 0 **** -0.32
56210 C 155.481 170.606 98.6983 C.3 0 **** -0.106
56211 C 154.997 170.14 97.2951 C.3 0 **** -0.106
56212 C 155.438 168.685 97.0381 C.3 0 **** -0.106
56213 C 154.801 167.693 98.0517 C.3 0 **** -0.106
56214 C 149.262 170.148 99.6108 C.3 0 **** 0
56215 C 150.596 169.349 99.7563 C.3 0 **** -0.053
56216 C 146.461 170.546 100.225 C.3 0 **** 0
56217 C 146.981 170.026 98.8692 C.3 0 **** 0.16
56218 C 148.239 169.251 98.9372 C.3 0 **** -0.053
56219 C 145.175 171.444 100.04 C.3 0 **** 0
56220 C 144.626 171.921 101.446 C.3 0 **** 0
56221 C 145.696 172.847 102.045 C.3 0 **** -0.053
56222 O 146.071 169.298 98.11 O.3 0 **** -0.32
56223 C 144.824 169.984 98.0908 C.3 0 **** 0.16
56224 C 144.189 170.426 99.4759 C.3 0 **** 0
56225 C 143.253 172.649 101.409 C.3 0 **** -0.053
56226 C 142.269 171.828 100.579 C.3 0 **** -0.053
56227 C 142.884 171.205 99.2695 C.3 0 **** 0
56228 C 141.184 172.7 100.048 C.3 0 **** -0.053
56229 C 140.758 173.713 101.078 C.3 0 **** -0.106
56230 C 141.916 174.734 101.269 C.3 0 **** -0.106
56231 C 143.287 174.116 100.927 C.3 0 **** -0.106
56232 C 141.891 170.251 98.6499 C.3 0 **** 0
56233 C 142.424 169.552 97.3642 C.3 0 **** 0
56234 C 143.875 169.078 97.356 C.3 0 **** 0
56235 C 140.095 171.691 99.694 C.3 0 **** 0
56236 C 140.534 170.89 98.4541 C.3 0 **** 0
56237 C 159.523 179.684 108.196 C.3 0 **** -0.053
56238 C 158.377 179.449 107.201 C.3 0 **** -0.159
56239 C 159.532 181.147 108.654 C.3 0 **** -0.159
56240 O 148.69 174.714 107.676 O.3 0 **** -0.57
56241 C 144.386 167.984 96.3767 C.3 0 **** -0.053
56242 C 143.446 167.639 95.2177 C.3 0 **** -0.053
56243 C 141.993 167.556 95.7215 C.3 0 **** 0
56244 C 141.48 168.868 96.3919 C.3 0 **** 0
56245 C 140.019 169.028 96.7753 C.3 0 **** 0
56246 C 139.029 168.164 96.0506 C.3 0 **** 0
56247 C 139.572 167.253 94.9214 C.3 0 **** 0
56248 C 141.074 167.198 94.5483 C.3 0 **** -0.053
56249 C 138.58 166.525 94.0248 C.3 0 **** -0.053
56250 C 137.088 166.913 94.1255 C.3 0 **** -0.053
56251 C 136.611 167.642 95.4203 C.3 0 **** 0
56252 C 137.594 168.733 95.9236 C.3 0 **** 0
56253 C 137.124 169.365 97.2914 C.3 0 **** 0
56254 C 138.148 170.466 97.7652 C.3 0 **** 0
56255 C 139.542 169.843 97.9826 C.3 0 **** 0
56256 C 135.701 169.98 97.1016 C.3 0 **** 0
56257 C 134.724 168.843 96.619 C.3 0 **** -0.053
56258 C 135.187 168.212 95.2914 C.3 0 **** -0.053
56259 C 138.696 172.303 99.4784 C.3 0 **** -0.053
56260 C 137.714 171.087 99.1535 C.3 0 **** 0
56261 C 135.197 170.597 98.4847 C.3 0 **** 0.02
56262 C 136.232 171.619 99.0733 C.3 0 **** 0
56263 C 135.857 172.396 100.358 C.3 0 **** -0.106
56264 C 134.469 172.016 100.791 C.3 0 **** -0.106
56265 C 133.507 172.112 99.612 C.3 0 **** -0.086
56266 C 133.831 171.277 98.4278 C.2 0 **** 0.379
56267 O 133.002 171.118 97.5486 O.2 0 **** -0.419
56268 H 164.389 178.151 104.642 H 0 **** 0.053
56269 H 163.75 176.517 104.787 H 0 **** 0.053
56270 H 165.665 177.956 106.64 H 0 **** 0.053
56271 H 164.582 176.617 106.98 H 0 **** 0.053
56272 H 167.368 176.563 105.724 H 0 **** 0.053
56273 H 167.082 174.159 105.23 H 0 **** 0.053
56274 H 164.967 174.782 103.45 H 0 **** 0.053
56275 H 166.664 175.16 103.175 H 0 **** 0.053
56276 H 164.106 174.472 105.62 H 0 **** 0.053
56277 H 164.5 174.635 107.925 H 0 **** 0.053
56278 H 167.221 173.381 107.447 H 0 **** 0.053
56279 H 166.622 173.92 109.019 H 0 **** 0.053
56280 H 168.112 175.612 107.685 H 0 **** 0.053
56281 H 166.62 176.239 108.377 H 0 **** 0.053
56282 H 163.278 171.21 107.888 H 0 **** 0.053
56283 H 164.592 170.655 106.118 H 0 **** 0.053
56284 H 164.843 172.659 104.156 H 0 **** 0.053
56285 H 166.031 172.143 105.361 H 0 **** 0.053
56286 H 162.715 174.057 106.904 H 0 **** 0.053
56287 H 159.852 170.422 102.555 H 0 **** 0.053
56288 H 161.142 171.637 102.346 H 0 **** 0.053
56289 H 162.183 169.348 102.285 H 0 **** 0.053
56290 H 161.297 168.893 103.749 H 0 **** 0.053
56291 H 163.865 169.587 104.014 H 0 **** 0.1268
56292 H 161.326 175.37 108.083 H 0 **** 0.053
56293 H 160.868 172.168 111.474 H 0 **** 0.053
56294 H 162.303 173.145 111.955 H 0 **** 0.053
56295 H 162.889 171.9 109.858 H 0 **** 0.1268
56296 H 160.134 173.966 113.246 H 0 **** 0.053
56297 H 161.059 175.452 112.915 H 0 **** 0.053
56298 H 158.71 176.116 113.358 H 0 **** 0.053
56299 H 158.117 174.932 112.173 H 0 **** 0.053
56300 H 160.962 177.358 108.66 H 0 **** 0.053
56301 H 159.32 176.963 108.155 H 0 **** 0.053
56302 H 160.231 179.091 110.139 H 0 **** 0.053
56303 H 157.395 178.15 109.464 H 0 **** 0.053
56304 H 157.731 179.653 110.329 H 0 **** 0.053
56305 H 157.26 177.613 111.828 H 0 **** 0.053
56306 H 158.758 178.51 112.187 H 0 **** 0.053
56307 H 158.089 175.028 109.125 H 0 **** 0.053
56308 H 152.886 174.954 107.579 H 0 **** 0.053
56309 H 150.677 174.802 106.788 H 0 **** 0.053
56310 H 156.413 170.866 102.319 H 0 **** 0.053
56311 H 145.868 175.277 104.181 H 0 **** 0.053
56312 H 147.59 176.012 105.549 H 0 **** 0.053
56313 H 147.138 173.477 107.175 H 0 **** 0.053
56314 H 145.866 175.431 107.991 H 0 **** 0.053
56315 H 146.991 176.781 107.709 H 0 **** 0.053
56316 H 145.46 177.465 105.735 H 0 **** 0.053
56317 H 144.703 177.681 107.319 H 0 **** 0.053
56318 H 143.351 175.758 107.107 H 0 **** 0.053
56319 H 144.543 173.92 106.53 H 0 **** 0.053
56320 H 143.742 174.452 103.646 H 0 **** 0.053
56321 H 143.727 172.901 104.52 H 0 **** 0.053
56322 H 141.879 173.839 105.961 H 0 **** 0.053
56323 H 141.385 173.797 104.27 H 0 **** 0.053
56324 H 141.099 176.061 105.794 H 0 **** 0.053
56325 H 141.376 176.163 104.062 H 0 **** 0.053
56326 H 143.528 176.784 104.402 H 0 **** 0.353
56327 H 154.542 167.633 100.201 H 0 **** 0.053
56328 H 156.544 169.018 99.6935 H 0 **** 0.053
56329 H 154.807 171.418 99.0435 H 0 **** 0.053
56330 H 156.473 171.096 98.6022 H 0 **** 0.053
56331 H 155.374 170.818 96.5028 H 0 **** 0.053
56332 H 153.891 170.2 97.2428 H 0 **** 0.053
56333 H 156.536 168.646 97.1497 H 0 **** 0.053
56334 H 155.207 168.378 96.0017 H 0 **** 0.053
56335 H 155.417 166.779 98.1337 H 0 **** 0.053
56336 H 153.807 167.369 97.6648 H 0 **** 0.053
56337 H 150.929 169.014 98.714 H 0 **** 0.053
56338 H 148.616 168.878 97.9622 H 0 **** 0.053
56339 H 145.275 173.26 103.005 H 0 **** 0.053
56340 H 142.931 172.651 102.441 H 0 **** 0.053
56341 H 141.876 171.013 101.219 H 0 **** 0.053
56342 H 141.494 173.244 99.1299 H 0 **** 0.053
56343 H 140.546 173.182 102.025 H 0 **** 0.053
56344 H 139.834 174.27 100.811 H 0 **** 0.053
56345 H 141.931 175.089 102.319 H 0 **** 0.053
56346 H 141.729 175.631 100.648 H 0 **** 0.053
56347 H 144.097 174.703 101.398 H 0 **** 0.053
56348 H 143.47 174.139 99.8453 H 0 **** 0.053
56349 H 160.476 179.505 107.661 H 0 **** 0.053
56350 H 158.504 180.074 106.303 H 0 **** 0.053
56351 H 157.406 179.707 107.655 H 0 **** 0.053
56352 H 158.321 178.401 106.868 H 0 **** 0.053
56353 H 160.383 181.35 109.325 H 0 **** 0.053
56354 H 158.608 181.395 109.2 H 0 **** 0.053
56355 H 159.612 181.832 107.796 H 0 **** 0.053
56356 H 149.185 173.963 108 H 0 **** 0.41
56357 H 145.493 167.982 96.1668 H 0 **** 0.053
56358 H 143.773 166.703 94.6851 H 0 **** 0.053
56359 H 141.36 166.254 94.0075 H 0 **** 0.053
56360 H 138.951 165.804 93.2537 H 0 **** 0.053
56361 H 136.361 166.229 93.6212 H 0 **** 0.053
56362 H 133.664 169.199 96.5151 H 0 **** 0.053
56363 H 134.479 167.447 94.8961 H 0 **** 0.053
56364 H 138.336 172.86 100.417 H 0 **** 0.053
56365 H 136.59 172.221 101.165 H 0 **** 0.053
56366 H 135.931 173.441 100.059 H 0 **** 0.053
56367 H 134.139 172.667 101.598 H 0 **** 0.053
56368 H 134.486 170.983 101.194 H 0 **** 0.053
56369 H 133.489 173.124 99.2012 H 0 **** 0.053
56370 H 132.489 171.788 99.8165 H 0 **** 0.053
56371 C 97.3132 180.726 97.7692 C.3 0 **** 0.054
56372 C 96.8269 179.377 97.1658 C.3 0 **** -0.106
56373 C 96.2698 178.438 98.2715 C.3 0 **** -0.053
56374 C 97.1733 178.565 99.5216 C.3 0 **** -0.053
56375 C 97.2175 180.047 100.001 C.3 0 **** 0.054
56376 O 96.7161 180.959 99.0342 O.3 0 **** -0.32
56377 C 98.6017 178.016 99.2329 C.3 0 **** -0.053
56378 C 98.5871 176.752 98.291 C.3 0 **** 0.107
56379 C 97.2279 176.064 98.3422 C.3 0 **** -0.106
56380 C 96.1057 176.969 97.8065 C.3 0 **** -0.106
56381 O 99.5709 175.764 98.617 O.3 0 **** -0.32
56382 C 100.812 176.377 98.9301 C.3 0 **** 0.107
56383 C 100.683 176.97 100.359 C.3 0 **** -0.053
56384 C 99.3348 177.71 100.554 C.3 0 **** -0.106
56385 C 101.837 177.834 100.801 C.2 0 **** 0
56386 C 102.507 178.655 99.7084 C.3 0 **** 0
56387 C 102.573 177.999 98.3299 C.3 0 **** 0
56388 C 101.3 177.324 97.8357 C.3 0 **** -0.053
56389 C 103.23 178.85 97.2615 C.3 0 **** 0
56390 C 104.613 179.31 97.7115 C.3 0 **** 0
56391 C 104.469 180.055 99.0911 C.3 0 **** 0.16
56392 C 103.851 179.185 100.164 C.3 0 **** 0
56393 C 103.854 179.84 101.572 C.3 0 **** -0.106
56394 C 103.527 178.693 102.516 C.3 0 **** -0.106
56395 C 102.317 177.882 102.066 C.2 0 **** -0.1268
56396 O 105.558 180.865 99.5862 O.3 0 **** -0.32
56397 C 106.689 180.821 98.7418 C.3 0 **** 0.16
56398 C 106.425 181.037 97.2145 C.3 0 **** 0
56399 C 105.241 180.226 96.629 C.3 0 **** 0
56400 C 101.578 176.653 96.5155 C.2 0 **** 0
56401 C 101.866 177.651 95.4298 C.3 0 **** -0.053
56402 C 103.247 178.227 95.8549 C.3 0 **** 0
56403 C 102.01 177.127 94.0181 C.2 0 **** 0
56404 C 102.22 175.795 93.8509 C.2 0 **** 0
56405 C 102.148 174.78 94.9819 C.3 0 **** -0.106
56406 C 101.706 175.345 96.3218 C.2 0 **** -0.1268
56407 C 102.343 175.197 92.4686 C.3 0 **** -0.106
56408 C 103.043 176.19 91.5516 C.3 0 **** -0.106
56409 C 102.405 177.558 91.7191 C.2 0 **** 0
56410 C 101.906 177.96 92.9329 C.2 0 **** 0
56411 C 101.33 179.356 93.0751 C.3 0 **** -0.106
56412 C 100.991 180.018 91.7475 C.3 0 **** -0.053
56413 C 102.2 179.916 90.8025 C.3 0 **** -0.106
56414 C 102.487 178.443 90.4932 C.3 0 **** -0.106
56415 C 105.372 179.46 95.3061 C.3 0 **** 0.147
56416 C 103.979 179.107 94.806 C.3 0 **** -0.053
56417 C 107.683 181.057 96.3401 C.3 0 **** 0
56418 C 107.465 181.232 94.832 C.3 0 **** 0.147
56419 S 106.249 180.286 93.9461 S.3 0 **** -0.294
56420 C 108.722 181.373 94.02 C.3 0 **** -0.053
56421 C 109.566 182.511 94.6097 C.3 0 **** 0
56422 C 109.889 182.275 96.1352 C.3 0 **** 0
56423 C 108.575 182.181 96.9381 C.3 0 **** 0
56424 C 110.732 183.437 96.6422 C.3 0 **** 0
56425 C 112.017 183.514 95.8433 C.3 0 **** 0
56426 C 111.78 183.698 94.2854 C.3 0 **** 0
56427 C 110.878 182.521 93.7618 C.3 0 **** -0.053
56428 C 113.172 183.631 93.5962 C.3 0 **** 0
56429 C 113.926 184.876 94.0088 C.3 0 **** 0.16
56430 C 114.065 185.016 95.5277 C.3 0 **** 0
56431 C 113.054 184.412 96.4592 C.3 0 **** 0
56432 C 108.772 182.082 98.4743 C.3 0 **** 0
56433 C 107.463 182.009 99.2534 C.3 0 **** -0.053
56434 C 110.842 183.623 98.1717 C.3 0 **** 0
56435 C 110.002 182.771 99.1256 C.3 0 **** 0
56436 C 112.889 185.003 97.8596 C.3 0 **** 0
56437 C 112.201 183.979 98.7822 C.3 0 **** 0
56438 C 115.274 185.728 96.1364 C.3 0 **** 0
56439 C 114.971 186.284 97.5642 C.3 0 **** 0
56440 C 114.271 185.285 98.5033 C.3 0 **** 0
56441 O 115.129 184.93 93.2719 O.3 0 **** -0.32
56442 C 114.721 185.586 92.0722 C.3 0 **** 0.107
56443 C 113.51 184.837 91.428 C.3 0 **** -0.053
56444 C 113.34 183.461 92.0671 C.3 0 **** 0.107
56445 C 113.695 184.716 89.9083 C.3 0 **** -0.106
56446 C 114.293 186.018 89.3447 C.3 0 **** -0.106
56447 C 115.755 186.18 89.8012 C.3 0 **** 0.134
56448 C 115.978 185.613 91.2289 C.3 0 **** -0.053
56449 C 117.106 186.358 91.9861 C.3 0 **** -0.106
56450 C 118.201 186.765 91.0096 C.3 0 **** -0.106
56451 C 117.631 187.702 89.901 C.3 0 **** 0.081
56452 N 116.194 187.555 89.6765 N.3 0 **** -0.727
56453 C 109.866 183.407 100.535 C.3 0 **** 0.16
56454 C 111.257 183.65 101.101 C.3 0 **** 0.16
56455 C 111.957 184.639 100.214 C.3 0 **** 0
56456 O 111.281 184.101 102.438 O.3 0 **** -0.32
56457 C 110.452 183.269 103.241 C.3 0 **** 0.107
56458 C 109.054 183.303 102.703 C.3 0 **** 0.107
56459 O 109.075 182.655 101.442 O.3 0 **** -0.32
56460 C 108.499 184.747 102.597 C.3 0 **** -0.106
56461 C 109.144 185.694 103.65 C.3 0 **** -0.106
56462 C 109.503 184.903 104.924 C.3 0 **** -0.106
56463 C 110.563 183.799 104.648 C.3 0 **** -0.106
56464 C 114.093 185.937 99.9464 C.3 0 **** 0
56465 C 113.351 184.915 100.866 C.3 0 **** -0.053
56466 C 116.303 186.668 98.2298 C.3 0 **** 0
56467 C 116.114 187.204 99.6622 C.3 0 **** 0.16
56468 C 115.425 186.282 100.588 C.3 0 **** -0.053
56469 C 116.953 187.759 97.2902 C.3 0 **** 0
56470 C 117.193 187.169 95.8398 C.3 0 **** 0
56471 C 115.804 186.885 95.2466 C.3 0 **** -0.053
56472 O 117.263 187.663 100.293 O.3 0 **** -0.32
56473 C 117.986 188.5 99.3979 C.3 0 **** 0.16
56474 C 118.316 187.938 97.9517 C.3 0 **** 0
56475 C 118.004 188.084 94.8794 C.3 0 **** -0.053
56476 C 119.264 188.571 95.5916 C.3 0 **** -0.053
56477 C 119.043 188.983 97.0959 C.3 0 **** 0
56478 C 119.751 189.838 94.975 C.3 0 **** -0.053
56479 C 119.609 189.794 93.4765 C.3 0 **** -0.106
56480 C 118.094 189.837 93.1263 C.3 0 **** -0.106
56481 C 117.226 189.269 94.2679 C.3 0 **** -0.106
56482 C 120.38 189.24 97.751 C.3 0 **** 0
56483 C 120.263 189.622 99.2566 C.3 0 **** 0
56484 C 119.263 188.846 100.112 C.3 0 **** 0
56485 C 121.2 189.899 95.452 C.3 0 **** 0
56486 C 121.221 190.216 96.9585 C.3 0 **** 0
56487 C 100.46 181.462 91.9422 C.3 0 **** -0.053
56488 C 101.56 182.463 92.3257 C.3 0 **** -0.159
56489 C 99.7106 181.953 90.6977 C.3 0 **** -0.159
56490 O 112.312 182.726 91.4173 O.3 0 **** -0.57
56491 C 119.366 188.79 101.663 C.3 0 **** -0.053
56492 C 120.347 189.777 102.304 C.3 0 **** -0.053
56493 C 121.644 189.849 101.476 C.3 0 **** 0
56494 C 121.422 190.273 99.9902 C.3 0 **** 0
56495 C 122.6 190.582 99.0827 C.3 0 **** 0
56496 C 123.888 190.967 99.7498 C.3 0 **** 0
56497 C 123.878 191.102 101.293 C.3 0 **** 0
56498 C 122.61 190.836 102.142 C.3 0 **** -0.053
56499 C 125.097 191.695 101.986 C.3 0 **** -0.053
56500 C 126.184 192.354 101.108 C.3 0 **** -0.053
56501 C 126.232 191.967 99.5971 C.3 0 **** 0
56502 C 124.834 191.878 98.9288 C.3 0 **** 0
56503 C 124.925 191.381 97.4331 C.3 0 **** 0
56504 C 123.487 191.305 96.7937 C.3 0 **** 0
56505 C 122.605 190.31 97.5743 C.3 0 **** 0
56506 C 125.837 192.362 96.6284 C.3 0 **** 0
56507 C 127.252 192.407 97.315 C.3 0 **** -0.053
56508 C 127.168 192.876 98.7803 C.3 0 **** -0.053
56509 C 122.092 190.889 94.6751 C.3 0 **** -0.053
56510 C 123.553 190.773 95.3059 C.3 0 **** 0
56511 C 125.965 191.855 95.1201 C.3 0 **** 0.02
56512 C 124.558 191.646 94.4588 C.3 0 **** 0
56513 C 124.493 191.26 92.9619 C.3 0 **** -0.106
56514 C 125.884 191.196 92.3974 C.3 0 **** -0.106
56515 C 126.656 192.46 92.7588 C.3 0 **** -0.086
56516 C 126.794 192.755 94.2071 C.2 0 **** 0.379
56517 O 127.584 193.603 94.585 O.2 0 **** -0.419
56518 H 97.0287 181.569 97.1255 H 0 **** 0.053
56519 H 98.4117 180.746 97.841 H 0 **** 0.053
56520 H 96.0415 179.53 96.3999 H 0 **** 0.053
56521 H 97.6578 178.883 96.6283 H 0 **** 0.053
56522 H 95.2788 178.833 98.5474 H 0 **** 0.053
56523 H 96.7451 177.927 100.317 H 0 **** 0.053
56524 H 98.238 180.336 100.307 H 0 **** 0.053
56525 H 96.5826 180.175 100.884 H 0 **** 0.053
56526 H 99.1498 178.835 98.7371 H 0 **** 0.053
56527 H 98.7421 177.074 97.245 H 0 **** 0.053
56528 H 97.0353 175.782 99.3945 H 0 **** 0.053
56529 H 97.2864 175.122 97.7748 H 0 **** 0.053
56530 H 95.1342 176.573 98.1335 H 0 **** 0.053
56531 H 96.1044 176.926 96.7081 H 0 **** 0.053
56532 H 101.537 175.565 99.0172 H 0 **** 0.053
56533 H 100.677 176.118 101.048 H 0 **** 0.053
56534 H 99.429 178.639 101.157 H 0 **** 0.053
56535 H 98.6767 177.038 101.134 H 0 **** 0.053
56536 H 100.567 178.118 97.6269 H 0 **** 0.053
56537 H 104.853 180.267 101.789 H 0 **** 0.053
56538 H 103.124 180.675 101.631 H 0 **** 0.053
56539 H 103.391 179.056 103.537 H 0 **** 0.053
56540 H 104.395 178.008 102.522 H 0 **** 0.053
56541 H 101.833 177.326 102.864 H 0 **** 0.1268
56542 H 101.102 178.465 95.4736 H 0 **** 0.053
56543 H 103.146 174.264 95.1057 H 0 **** 0.053
56544 H 101.417 173.971 94.6949 H 0 **** 0.053
56545 H 101.532 174.623 97.1143 H 0 **** 0.1268
56546 H 102.874 174.221 92.4912 H 0 **** 0.053
56547 H 101.32 174.998 92.102 H 0 **** 0.053
56548 H 103.007 175.853 90.4965 H 0 **** 0.053
56549 H 104.113 176.264 91.8253 H 0 **** 0.053
56550 H 100.407 179.294 93.6715 H 0 **** 0.053
56551 H 102.019 180.009 93.6449 H 0 **** 0.053
56552 H 100.165 179.432 91.2954 H 0 **** 0.053
56553 H 103.08 180.369 91.2863 H 0 **** 0.053
56554 H 102.034 180.467 89.8657 H 0 **** 0.053
56555 H 103.485 178.345 90.0062 H 0 **** 0.053
56556 H 101.741 178.076 89.752 H 0 **** 0.053
56557 H 104.069 178.602 93.7836 H 0 **** 0.053
56558 H 108.576 181.497 92.9051 H 0 **** 0.053
56559 H 110.55 182.758 92.6998 H 0 **** 0.053
56560 H 107.587 181.875 100.368 H 0 **** 0.053
56561 H 114.433 186.621 92.3225 H 0 **** 0.053
56562 H 112.586 185.431 91.5847 H 0 **** 0.053
56563 H 114.274 182.925 91.9656 H 0 **** 0.053
56564 H 114.38 183.869 89.6847 H 0 **** 0.053
56565 H 112.723 184.464 89.4254 H 0 **** 0.053
56566 H 113.68 186.852 89.7245 H 0 **** 0.053
56567 H 114.232 186.053 88.2456 H 0 **** 0.053
56568 H 116.374 185.577 89.1172 H 0 **** 0.053
56569 H 116.279 184.549 91.1339 H 0 **** 0.053
56570 H 116.68 187.279 92.4109 H 0 **** 0.053
56571 H 117.487 185.746 92.8225 H 0 **** 0.053
56572 H 118.61 185.84 90.564 H 0 **** 0.053
56573 H 119.046 187.247 91.5315 H 0 **** 0.053
56574 H 118.15 187.501 88.9504 H 0 **** 0.053
56575 H 117.85 188.756 90.1428 H 0 **** 0.053
56576 H 115.682 188.118 90.3265 H 0 **** 0.353
56577 H 110.83 182.25 103.158 H 0 **** 0.053
56578 H 108.399 182.734 103.357 H 0 **** 0.053
56579 H 108.669 185.185 101.591 H 0 **** 0.053
56580 H 107.395 184.759 102.718 H 0 **** 0.053
56581 H 108.47 186.542 103.883 H 0 **** 0.053
56582 H 110.065 186.146 103.23 H 0 **** 0.053
56583 H 108.579 184.421 105.288 H 0 **** 0.053
56584 H 109.851 185.58 105.725 H 0 **** 0.053
56585 H 110.498 183.005 105.415 H 0 **** 0.053
56586 H 111.58 184.244 104.741 H 0 **** 0.053
56587 H 113.228 185.388 101.901 H 0 **** 0.053
56588 H 115.284 186.663 101.62 H 0 **** 0.053
56589 H 115.962 186.55 94.1827 H 0 **** 0.053
56590 H 118.287 187.426 94.0688 H 0 **** 0.053
56591 H 120.021 187.764 95.5424 H 0 **** 0.053
56592 H 119.202 190.727 95.353 H 0 **** 0.053
56593 H 120.068 188.857 93.1079 H 0 **** 0.053
56594 H 120.12 190.628 92.9482 H 0 **** 0.053
56595 H 117.907 189.251 92.2041 H 0 **** 0.053
56596 H 117.794 190.876 92.8933 H 0 **** 0.053
56597 H 116.233 188.976 93.8804 H 0 **** 0.053
56598 H 117.05 190.027 95.0424 H 0 **** 0.053
56599 H 99.7275 181.432 92.7715 H 0 **** 0.053
56600 H 101.127 183.446 92.5684 H 0 **** 0.053
56601 H 102.268 182.604 91.4929 H 0 **** 0.053
56602 H 102.139 182.132 93.2023 H 0 **** 0.053
56603 H 98.8796 181.277 90.4399 H 0 **** 0.053
56604 H 100.384 182.005 89.8274 H 0 **** 0.053
56605 H 99.288 182.956 90.8587 H 0 **** 0.053
56606 H 112.269 181.886 91.8721 H 0 **** 0.41
56607 H 118.415 188.561 102.221 H 0 **** 0.053
56608 H 120.538 189.527 103.385 H 0 **** 0.053
56609 H 122.84 190.602 103.218 H 0 **** 0.053
56610 H 125.139 191.731 103.104 H 0 **** 0.053
56611 H 127.155 192.585 101.611 H 0 **** 0.053
56612 H 127.984 193.051 96.7569 H 0 **** 0.053
56613 H 128.164 192.977 99.2699 H 0 **** 0.053
56614 H 122.123 190.631 93.5553 H 0 **** 0.053
56615 H 123.957 190.307 92.8123 H 0 **** 0.053
56616 H 123.896 192.054 92.5155 H 0 **** 0.053
56617 H 125.843 191.079 91.3159 H 0 **** 0.053
56618 H 126.398 190.3 92.7998 H 0 **** 0.053
56619 H 126.154 193.351 92.373 H 0 **** 0.053
56620 H 127.699 192.472 92.4483 H 0 **** 0.053
56621 C 172.915 94.0197 160.739 C.3 0 **** 0.054
56622 C 172.34 94.2395 159.31 C.3 0 **** -0.106
56623 C 173.479 94.3832 158.264 C.3 0 **** -0.053
56624 C 174.616 95.226 158.891 C.3 0 **** -0.053
56625 C 175.124 94.5486 160.199 C.3 0 **** 0.054
56626 O 174.248 93.5389 160.68 O.3 0 **** -0.32
56627 C 174.145 96.6873 159.151 C.3 0 **** -0.053
56628 C 173.179 97.2232 158.026 C.3 0 **** 0.107
56629 C 173.374 96.4355 156.736 C.3 0 **** -0.106
56630 C 173 94.9537 156.905 C.3 0 **** -0.106
56631 O 173.36 98.6071 157.706 O.3 0 **** -0.32
56632 C 173.539 99.3745 158.886 C.3 0 **** 0.107
56633 C 174.987 99.1225 159.384 C.3 0 **** -0.053
56634 C 175.361 97.6191 159.324 C.3 0 **** -0.106
56635 C 175.31 99.7015 160.738 C.2 0 **** 0
56636 C 174.167 99.7156 161.743 C.3 0 **** 0
56637 C 172.775 99.9536 161.161 C.3 0 **** 0
56638 C 172.419 99.1692 159.905 C.3 0 **** -0.053
56639 C 171.657 99.9453 162.186 C.3 0 **** 0
56640 C 171.951 100.929 163.313 C.3 0 **** 0
56641 C 173.356 100.579 163.931 C.3 0 **** 0.16
56642 C 174.472 100.631 162.911 C.3 0 **** 0
56643 C 175.886 100.455 163.529 C.3 0 **** -0.106
56644 C 176.833 100.883 162.417 C.3 0 **** -0.106
56645 C 176.51 100.229 161.079 C.2 0 **** -0.1268
56646 O 173.738 101.137 165.208 O.3 0 **** -0.32
56647 C 172.764 102.02 165.722 C.3 0 **** 0.16
56648 C 171.286 101.508 165.709 C.3 0 **** 0
56649 C 170.825 100.86 164.378 C.3 0 **** 0
56650 C 171.059 99.6016 159.424 C.2 0 **** 0
56651 C 169.972 99.2018 160.381 C.3 0 **** -0.053
56652 C 170.243 100.121 161.606 C.3 0 **** 0
56653 C 168.54 99.4341 159.951 C.2 0 **** 0
56654 C 168.315 100.286 158.917 C.2 0 **** 0
56655 C 169.423 100.885 158.064 C.3 0 **** -0.106
56656 C 170.819 100.371 158.369 C.2 0 **** -0.1268
56657 C 166.914 100.541 158.412 C.3 0 **** -0.106
56658 C 165.945 100.511 159.586 C.3 0 **** -0.106
56659 C 166.222 99.279 160.43 C.2 0 **** 0
56660 C 167.496 98.7879 160.563 C.2 0 **** 0
56661 C 167.742 97.591 161.463 C.3 0 **** -0.106
56662 C 166.481 96.8073 161.8 C.3 0 **** -0.053
56663 C 165.397 97.7755 162.302 C.3 0 **** -0.106
56664 C 165.018 98.748 161.179 C.3 0 **** -0.106
56665 C 169.477 101.216 163.739 C.3 0 **** 0.147
56666 C 169.137 100.162 162.695 C.3 0 **** -0.053
56667 C 170.268 102.463 166.343 C.3 0 **** 0
56668 C 168.802 102.014 166.317 C.3 0 **** 0.147
56669 S 168.043 101.372 164.844 S.3 0 **** -0.294
56670 C 167.849 102.911 167.059 C.3 0 **** -0.053
56671 C 168.363 103.102 168.492 C.3 0 **** 0
56672 C 169.833 103.673 168.519 C.3 0 **** 0
56673 C 170.784 102.702 167.79 C.3 0 **** 0
56674 C 170.265 103.842 169.968 C.3 0 **** 0
56675 C 169.321 104.797 170.669 C.3 0 **** 0
56676 C 167.808 104.322 170.64 C.3 0 **** 0
56677 C 167.365 104.11 169.146 C.3 0 **** -0.053
56678 C 166.956 105.455 171.277 C.3 0 **** 0
56679 C 167.307 105.495 172.749 C.3 0 **** 0.16
56680 C 168.802 105.714 173.001 C.3 0 **** 0
56681 C 169.831 105.28 171.999 C.3 0 **** 0
56682 C 172.283 103.097 167.869 C.3 0 **** 0
56683 C 173.21 102.117 167.159 C.3 0 **** -0.053
56684 C 171.775 104.014 170.247 C.3 0 **** 0
56685 C 172.8 103.856 169.122 C.3 0 **** 0
56686 C 171.256 104.994 172.474 C.3 0 **** 0
56687 C 172.228 105.05 171.28 C.3 0 **** 0
56688 C 169.28 106.438 174.261 C.3 0 **** 0
56689 C 170.747 106.058 174.637 C.3 0 **** 0
56690 C 171.737 106.091 173.458 C.3 0 **** 0
56691 O 166.434 106.4 173.389 O.3 0 **** -0.32
56692 C 165.308 105.576 173.689 C.3 0 **** 0.107
56693 C 164.794 104.865 172.396 C.3 0 **** -0.053
56694 C 165.414 105.511 171.158 C.3 0 **** 0.107
56695 C 163.261 104.91 172.326 C.3 0 **** -0.106
56696 C 162.663 104.675 173.726 C.3 0 **** -0.106
56697 C 162.946 105.881 174.641 C.3 0 **** 0.134
56698 C 164.322 106.529 174.33 C.3 0 **** -0.053
56699 C 164.958 107.184 175.581 C.3 0 **** -0.106
56700 C 163.869 107.787 176.459 C.3 0 **** -0.106
56701 C 162.86 106.69 176.918 C.3 0 **** 0.081
56702 N 162.805 105.523 176.038 N.3 0 **** -0.727
56703 C 174.231 103.573 169.651 C.3 0 **** 0.16
56704 C 174.633 104.689 170.603 C.3 0 **** 0.16
56705 C 173.695 104.665 171.775 C.3 0 **** 0
56706 O 175.969 104.629 171.055 O.3 0 **** -0.32
56707 C 176.844 104.452 169.946 C.3 0 **** 0.107
56708 C 176.477 103.189 169.229 C.3 0 **** 0.107
56709 O 175.207 103.398 168.635 O.3 0 **** -0.32
56710 C 176.475 101.956 170.17 C.3 0 **** -0.106
56711 C 177.468 102.132 171.355 C.3 0 **** -0.106
56712 C 178.669 102.993 170.918 C.3 0 **** -0.106
56713 C 178.241 104.432 170.513 C.3 0 **** -0.106
56714 C 173.208 105.768 173.981 C.3 0 **** 0
56715 C 174.183 105.777 172.76 C.3 0 **** -0.053
56716 C 171.258 107.063 175.682 C.3 0 **** 0
56717 C 172.717 106.789 176.099 C.3 0 **** 0.16
56718 C 173.694 106.792 174.99 C.3 0 **** -0.053
56719 C 170.276 106.938 176.913 C.3 0 **** 0
56720 C 168.793 107.28 176.476 C.3 0 **** 0
56721 C 168.363 106.183 175.489 C.3 0 **** -0.053
56722 O 173.219 107.595 177.114 O.3 0 **** -0.32
56723 C 172.264 107.67 178.166 C.3 0 **** 0.16
56724 C 170.774 108.076 177.799 C.3 0 **** 0
56725 C 167.767 107.381 177.638 C.3 0 **** -0.053
56726 C 168.336 108.276 178.737 C.3 0 **** -0.053
56727 C 169.865 108.049 179.034 C.3 0 **** 0
56728 C 167.698 107.959 180.046 C.3 0 **** -0.053
56729 C 166.227 107.69 179.875 C.3 0 **** -0.106
56730 C 166.061 106.344 179.111 C.3 0 **** -0.106
56731 C 167.283 106.036 178.222 C.3 0 **** -0.106
56732 C 170.362 109.122 179.974 C.3 0 **** 0
56733 C 171.881 109.004 180.299 C.3 0 **** 0
56734 C 172.83 108.648 179.158 C.3 0 **** 0
56735 C 168 109.209 180.869 C.3 0 **** 0
56736 C 169.501 109.235 181.212 C.3 0 **** 0
56737 C 166.775 95.6299 162.765 C.3 0 **** -0.053
56738 C 167.05 96.0854 164.206 C.3 0 **** -0.159
56739 C 165.642 94.5975 162.745 C.3 0 **** -0.159
56740 O 164.872 104.947 169.97 O.3 0 **** -0.57
56741 C 174.354 108.952 179.22 C.3 0 **** -0.053
56742 C 174.898 109.342 180.598 C.3 0 **** -0.053
56743 C 173.924 110.304 181.302 C.3 0 **** 0
56744 C 172.488 109.724 181.488 C.3 0 **** 0
56745 C 171.454 110.46 182.323 C.3 0 **** 0
56746 C 171.973 111.422 183.351 C.3 0 **** 0
56747 C 173.51 111.529 183.516 C.3 0 **** 0
56748 C 174.495 110.686 182.671 C.3 0 **** -0.053
56749 C 174.067 112.323 184.69 C.3 0 **** -0.053
56750 C 173.082 112.807 185.777 C.3 0 **** -0.053
56751 C 171.567 112.872 185.412 C.3 0 **** 0
56752 C 171.068 111.659 184.585 C.3 0 **** 0
56753 C 169.56 111.821 184.147 C.3 0 **** 0
56754 C 169.095 110.569 183.311 C.3 0 **** 0
56755 C 169.949 110.43 182.034 C.3 0 **** 0
56756 C 168.678 111.991 185.425 C.3 0 **** 0
56757 C 169.191 113.245 186.225 C.3 0 **** -0.053
56758 C 170.668 113.098 186.641 C.3 0 **** -0.053
56759 C 167.148 109.36 182.146 C.3 0 **** -0.053
56760 C 167.597 110.73 182.83 C.3 0 **** 0
56761 C 167.152 112.189 184.998 C.3 0 **** 0.02
56762 C 166.659 111.03 184.063 C.3 0 **** 0
56763 C 165.171 111.003 183.639 C.3 0 **** -0.106
56764 C 164.443 112.149 184.283 C.3 0 **** -0.106
56765 C 164.742 112.188 185.778 C.3 0 **** -0.086
56766 C 166.17 112.318 186.159 C.2 0 **** 0.379
56767 O 166.473 112.588 187.309 O.2 0 **** -0.419
56768 H 172.332 93.2664 161.286 H 0 **** 0.053
56769 H 172.856 94.9472 161.329 H 0 **** 0.053
56770 H 171.677 93.4065 159.003 H 0 **** 0.053
56771 H 171.694 95.1375 159.298 H 0 **** 0.053
56772 H 173.882 93.3704 158.099 H 0 **** 0.053
56773 H 175.44 95.2863 158.157 H 0 **** 0.053
56774 H 175.314 95.2976 160.988 H 0 **** 0.053
56775 H 176.08 94.046 160.015 H 0 **** 0.053
56776 H 173.608 96.6682 160.116 H 0 **** 0.053
56777 H 172.131 97.0666 158.34 H 0 **** 0.053
56778 H 174.434 96.5406 156.438 H 0 **** 0.053
56779 H 172.78 96.9093 155.939 H 0 **** 0.053
56780 H 173.43 94.3744 156.077 H 0 **** 0.053
56781 H 171.909 94.8483 156.824 H 0 **** 0.053
56782 H 173.517 100.42 158.573 H 0 **** 0.053
56783 H 175.65 99.639 158.681 H 0 **** 0.053
56784 H 175.972 97.2853 160.191 H 0 **** 0.053
56785 H 175.998 97.4775 158.433 H 0 **** 0.053
56786 H 172.32 98.1121 160.194 H 0 **** 0.053
56787 H 175.994 101.105 164.42 H 0 **** 0.053
56788 H 176.053 99.4107 163.865 H 0 **** 0.053
56789 H 177.872 100.697 162.699 H 0 **** 0.053
56790 H 176.718 101.975 162.282 H 0 **** 0.053
56791 H 177.345 100.199 160.385 H 0 **** 0.1268
56792 H 170.127 98.1372 160.682 H 0 **** 0.053
56793 H 169.412 102.013 158.141 H 0 **** 0.053
56794 H 169.217 100.649 156.986 H 0 **** 0.053
56795 H 171.606 100.689 157.691 H 0 **** 0.1268
56796 H 166.847 101.5 157.854 H 0 **** 0.053
56797 H 166.667 99.7352 157.697 H 0 **** 0.053
56798 H 164.893 100.534 159.237 H 0 **** 0.053
56799 H 166.09 101.41 160.215 H 0 **** 0.053
56800 H 168.442 96.911 160.956 H 0 **** 0.053
56801 H 168.242 97.9014 162.401 H 0 **** 0.053
56802 H 166.116 96.3604 160.852 H 0 **** 0.053
56803 H 165.784 98.341 163.164 H 0 **** 0.053
56804 H 164.501 97.2408 162.648 H 0 **** 0.053
56805 H 164.413 99.5878 161.594 H 0 **** 0.053
56806 H 164.362 98.2216 160.45 H 0 **** 0.053
56807 H 168.099 100.384 162.269 H 0 **** 0.053
56808 H 166.763 102.594 167.044 H 0 **** 0.053
56809 H 166.356 103.587 169.136 H 0 **** 0.053
56810 H 174.298 102.419 167.154 H 0 **** 0.053
56811 H 165.618 104.823 174.434 H 0 **** 0.053
56812 H 165.075 103.792 172.429 H 0 **** 0.053
56813 H 165.188 106.568 171.181 H 0 **** 0.053
56814 H 162.935 105.904 171.95 H 0 **** 0.053
56815 H 162.891 104.162 171.588 H 0 **** 0.053
56816 H 163.135 103.766 174.136 H 0 **** 0.053
56817 H 161.581 104.478 173.68 H 0 **** 0.053
56818 H 162.178 106.639 174.419 H 0 **** 0.053
56819 H 164.165 107.325 173.573 H 0 **** 0.053
56820 H 165.454 106.394 176.164 H 0 **** 0.053
56821 H 165.727 107.921 175.29 H 0 **** 0.053
56822 H 163.354 108.562 175.863 H 0 **** 0.053
56823 H 164.298 108.312 177.329 H 0 **** 0.053
56824 H 161.85 107.125 176.977 H 0 **** 0.053
56825 H 163.101 106.355 177.942 H 0 **** 0.053
56826 H 163.526 104.873 176.28 H 0 **** 0.353
56827 H 176.69 105.292 169.269 H 0 **** 0.053
56828 H 177.19 103.005 168.429 H 0 **** 0.053
56829 H 175.467 101.757 170.591 H 0 **** 0.053
56830 H 176.728 101.03 169.612 H 0 **** 0.053
56831 H 177.801 101.147 171.739 H 0 **** 0.053
56832 H 176.953 102.628 172.203 H 0 **** 0.053
56833 H 179.128 102.503 170.041 H 0 **** 0.053
56834 H 179.44 103.029 171.709 H 0 **** 0.053
56835 H 178.989 104.879 169.832 H 0 **** 0.053
56836 H 178.223 105.073 171.424 H 0 **** 0.053
56837 H 175.237 105.547 173.141 H 0 **** 0.053
56838 H 174.745 106.592 175.285 H 0 **** 0.053
56839 H 167.28 106.369 175.241 H 0 **** 0.053
56840 H 166.912 107.869 177.191 H 0 **** 0.053
56841 H 168.176 109.33 178.438 H 0 **** 0.053
56842 H 168.162 107.076 180.536 H 0 **** 0.053
56843 H 165.782 108.522 179.297 H 0 **** 0.053
56844 H 165.663 107.628 180.831 H 0 **** 0.053
56845 H 165.153 106.384 178.477 H 0 **** 0.053
56846 H 165.892 105.523 179.834 H 0 **** 0.053
56847 H 167.009 105.303 177.441 H 0 **** 0.053
56848 H 168.092 105.582 178.809 H 0 **** 0.053
56849 H 167.685 95.1211 162.393 H 0 **** 0.053
56850 H 167.368 95.2359 164.831 H 0 **** 0.053
56851 H 166.143 96.5153 164.66 H 0 **** 0.053
56852 H 167.843 96.8491 164.259 H 0 **** 0.053
56853 H 165.468 94.2153 161.727 H 0 **** 0.053
56854 H 164.699 95.0398 163.104 H 0 **** 0.053
56855 H 165.878 93.7366 163.39 H 0 **** 0.053
56856 H 165.307 105.4 169.25 H 0 **** 0.41
56857 H 175.015 108.328 178.556 H 0 **** 0.053
56858 H 175.942 109.757 180.528 H 0 **** 0.053
56859 H 175.528 111.128 182.633 H 0 **** 0.053
56860 H 175.172 112.475 184.784 H 0 **** 0.053
56861 H 173.472 113.565 186.501 H 0 **** 0.053
56862 H 168.567 113.465 187.132 H 0 **** 0.053
56863 H 171.038 113.945 187.264 H 0 **** 0.053
56864 H 166.026 109.392 181.897 H 0 **** 0.053
56865 H 165.062 111.028 182.541 H 0 **** 0.053
56866 H 164.819 110.034 183.99 H 0 **** 0.053
56867 H 163.371 112.05 184.118 H 0 **** 0.053
56868 H 164.758 113.097 183.801 H 0 **** 0.053
56869 H 164.442 111.256 186.263 H 0 **** 0.053
56870 H 164.31 113.029 186.316 H 0 **** 0.053
56871 C 116.684 129.311 134.088 C.3 0 **** 0.054
56872 C 115.404 130.11 134.469 C.3 0 **** -0.106
56873 C 114.224 129.153 134.795 C.3 0 **** -0.053
56874 C 114.257 127.976 133.79 C.3 0 **** -0.053
56875 C 115.628 127.24 133.874 C.3 0 **** 0.054
56876 O 116.615 127.982 134.577 O.3 0 **** -0.32
56877 C 113.963 128.472 132.343 C.3 0 **** -0.053
56878 C 112.888 129.624 132.303 C.3 0 **** 0.107
56879 C 112.025 129.591 133.559 C.3 0 **** -0.106
56880 C 112.847 129.863 134.829 C.3 0 **** -0.106
56881 O 112.002 129.562 131.181 O.3 0 **** -0.32
56882 C 112.715 129.242 129.997 C.3 0 **** 0.107
56883 C 113.033 127.724 130.048 C.3 0 **** -0.053
56884 C 113.539 127.29 131.448 C.3 0 **** -0.106
56885 C 113.956 127.224 128.967 C.2 0 **** 0
56886 C 115.035 128.199 128.514 C.3 0 **** 0
56887 C 114.638 129.674 128.511 C.3 0 **** 0
56888 C 113.891 130.181 129.739 C.3 0 **** -0.053
56889 C 115.74 130.619 128.072 C.3 0 **** 0
56890 C 116.299 130.203 126.716 C.3 0 **** 0
56891 C 116.773 128.704 126.807 C.3 0 **** 0.16
56892 C 115.657 127.763 127.203 C.3 0 **** 0
56893 C 116.057 126.263 127.135 C.3 0 **** -0.106
56894 C 114.732 125.521 127.225 C.3 0 **** -0.106
56895 C 113.853 126.013 128.37 C.2 0 **** -0.1268
56896 O 117.625 128.158 125.776 O.3 0 **** -0.32
56897 C 117.879 129.083 124.741 C.3 0 **** 0.16
56898 C 118.315 130.52 125.182 C.3 0 **** 0
56899 C 117.463 131.147 126.314 C.3 0 **** 0
56900 C 113.499 131.619 129.519 C.2 0 **** 0
56901 C 114.697 132.524 129.464 C.3 0 **** -0.053
56902 C 115.373 132.112 128.125 C.3 0 **** 0
56903 C 114.446 134.014 129.403 C.2 0 **** 0
56904 C 113.203 134.437 129.054 C.2 0 **** 0
56905 C 112.009 133.508 128.889 C.3 0 **** -0.106
56906 C 112.273 132.057 129.256 C.2 0 **** -0.1268
56907 C 112.871 135.911 129.002 C.3 0 **** -0.106
56908 C 114.091 136.684 128.523 C.3 0 **** -0.106
56909 C 115.311 136.221 129.299 C.2 0 **** 0
56910 C 115.429 134.918 129.715 C.2 0 **** 0
56911 C 116.689 134.479 130.436 C.3 0 **** -0.106
56912 C 117.516 135.633 130.985 C.3 0 **** -0.053
56913 C 117.741 136.674 129.875 C.3 0 **** -0.106
56914 C 116.395 137.268 129.448 C.3 0 **** -0.106
56915 C 116.958 132.593 126.229 C.3 0 **** 0.147
56916 C 116.511 133.038 127.614 C.3 0 **** -0.053
56917 C 118.654 131.473 124.031 C.3 0 **** 0
56918 C 119.052 132.902 124.422 C.3 0 **** 0.147
56919 S 118.114 133.846 125.599 S.3 0 **** -0.294
56920 C 119.497 133.771 123.279 C.3 0 **** -0.053
56921 C 120.622 133.053 122.521 C.3 0 **** 0
56922 C 120.176 131.626 122.019 C.3 0 **** 0
56923 C 119.77 130.752 123.224 C.3 0 **** 0
56924 C 121.337 130.985 121.273 C.3 0 **** 0
56925 C 121.723 131.855 120.094 C.3 0 **** 0
56926 C 122.135 133.33 120.509 C.3 0 **** 0
56927 C 120.953 133.986 121.313 C.3 0 **** -0.053
56928 C 122.376 134.128 119.197 C.3 0 **** 0
56929 C 123.623 133.557 118.558 C.3 0 **** 0.16
56930 C 123.519 132.054 118.283 C.3 0 **** 0
56931 C 122.635 131.171 119.114 C.3 0 **** 0
56932 C 119.439 129.28 122.861 C.3 0 **** 0
56933 C 119.056 128.427 124.065 C.3 0 **** -0.053
56934 C 121.274 129.46 121.031 C.3 0 **** 0
56935 C 120.165 128.614 121.662 C.3 0 **** 0
56936 C 122.95 129.677 119.205 C.3 0 **** 0
56937 C 121.701 128.905 119.669 C.3 0 **** 0
56938 C 124.274 131.423 117.112 C.3 0 **** 0
56939 C 124.533 129.899 117.331 C.3 0 **** 0
56940 C 123.304 129.104 117.809 C.3 0 **** 0
56941 O 123.964 134.364 117.452 O.3 0 **** -0.32
56942 C 124.754 135.388 118.055 C.3 0 **** 0.107
56943 C 123.968 136.06 119.228 C.3 0 **** -0.053
56944 C 122.493 135.671 119.166 C.3 0 **** 0.107
56945 C 124.134 137.587 119.185 C.3 0 **** -0.106
56946 C 125.581 137.949 118.807 C.3 0 **** -0.106
56947 C 125.86 137.588 117.336 C.3 0 **** 0.134
56948 C 125.093 136.31 116.903 C.3 0 **** -0.053
56949 C 125.844 135.521 115.801 C.3 0 **** -0.106
56950 C 126.556 136.491 114.867 C.3 0 **** -0.106
56951 C 127.582 137.362 115.655 C.3 0 **** 0.081
56952 N 127.283 137.495 117.079 N.3 0 **** -0.727
56953 C 120.528 127.106 121.728 C.3 0 **** 0.16
56954 C 120.857 126.617 120.326 C.3 0 **** 0.16
56955 C 122.068 127.362 119.843 C.3 0 **** 0
56956 O 121.074 125.226 120.22 O.3 0 **** -0.32
56957 C 120.012 124.524 120.858 C.3 0 **** 0.107
56958 C 119.948 124.935 122.297 C.3 0 **** 0.107
56959 O 119.533 126.291 122.327 O.3 0 **** -0.32
56960 C 121.3 124.732 123.028 C.3 0 **** -0.106
56961 C 122.132 123.578 122.397 C.3 0 **** -0.106
56962 C 121.192 122.501 121.819 C.3 0 **** -0.106
56963 C 120.305 123.057 120.669 C.3 0 **** -0.106
56964 C 123.67 127.557 117.915 C.3 0 **** 0
56965 C 122.415 126.783 118.432 C.3 0 **** -0.053
56966 C 124.974 129.283 115.993 C.3 0 **** 0
56967 C 125.228 127.766 116.099 C.3 0 **** 0.16
56968 C 124.076 126.972 116.575 C.3 0 **** -0.053
56969 C 126.287 130.056 115.577 C.3 0 **** 0
56970 C 125.992 131.604 115.419 C.3 0 **** 0
56971 C 125.627 132.127 116.817 C.3 0 **** -0.053
56972 O 125.725 127.153 114.955 O.3 0 **** -0.32
56973 C 126.791 127.938 114.431 C.3 0 **** 0.16
56974 C 126.533 129.484 114.185 C.3 0 **** 0
56975 C 127.157 132.443 114.824 C.3 0 **** -0.053
56976 C 127.683 131.756 113.565 C.3 0 **** -0.053
56977 C 127.798 130.189 113.679 C.3 0 **** 0
56978 C 129.09 132.168 113.298 C.3 0 **** -0.053
56979 C 129.283 133.633 113.585 C.3 0 **** -0.106
56980 C 129.179 133.849 115.123 C.3 0 **** -0.106
56981 C 128.313 132.765 115.796 C.3 0 **** -0.106
56982 C 128.119 129.607 112.323 C.3 0 **** 0
56983 C 128.214 128.052 112.324 C.3 0 **** 0
56984 C 127.188 127.272 113.142 C.3 0 **** 0
56985 C 129.264 131.804 111.826 C.3 0 **** 0
56986 C 129.321 130.271 111.689 C.3 0 **** 0
56987 C 118.82 135.137 131.662 C.3 0 **** -0.053
56988 C 119.881 134.666 130.656 C.3 0 **** -0.159
56989 C 119.41 136.209 132.587 C.3 0 **** -0.159
56990 O 121.747 136.36 120.16 O.3 0 **** -0.57
56991 C 126.873 125.775 112.868 C.3 0 **** -0.053
56992 C 127.86 125.046 111.952 C.3 0 **** -0.053
56993 C 128.255 125.944 110.767 C.3 0 **** 0
56994 C 128.889 127.304 111.189 C.3 0 **** 0
56995 C 129.495 128.232 110.152 C.3 0 **** 0
56996 C 129.946 127.607 108.865 C.3 0 **** 0
56997 C 129.785 126.073 108.719 C.3 0 **** 0
56998 C 129.234 125.189 109.863 C.3 0 **** -0.053
56999 C 130.452 125.375 107.542 C.3 0 **** -0.053
57000 C 131.355 126.211 106.61 C.3 0 **** -0.053
57001 C 131.256 127.766 106.678 C.3 0 **** 0
57002 C 131.096 128.324 108.116 C.3 0 **** 0
57003 C 130.877 129.888 108.12 C.3 0 **** 0
57004 C 130.718 130.414 109.597 C.3 0 **** 0
57005 C 129.494 129.761 110.27 C.3 0 **** 0
57006 C 132.094 130.569 107.419 C.3 0 **** 0
57007 C 132.214 130 105.955 C.3 0 **** -0.053
57008 C 132.412 128.471 105.945 C.3 0 **** -0.053
57009 C 130.484 132.456 111.142 C.3 0 **** -0.053
57010 C 130.461 131.974 109.621 C.3 0 **** 0
57011 C 131.875 132.15 107.386 C.3 0 **** 0.02
57012 C 131.593 132.725 108.819 C.3 0 **** 0
57013 C 131.463 134.257 108.989 C.3 0 **** -0.106
57014 C 131.684 134.932 107.665 C.3 0 **** -0.106
57015 C 132.96 134.409 107.016 C.3 0 **** -0.086
57016 C 133.02 132.947 106.767 C.2 0 **** 0.379
57017 O 133.891 132.484 106.051 O.2 0 **** -0.419
57018 H 117.578 129.766 134.535 H 0 **** 0.053
57019 H 116.84 129.324 132.998 H 0 **** 0.053
57020 H 115.578 130.77 135.341 H 0 **** 0.053
57021 H 115.126 130.792 133.645 H 0 **** 0.053
57022 H 114.429 128.732 135.792 H 0 **** 0.053
57023 H 113.441 127.278 134.056 H 0 **** 0.053
57024 H 115.996 126.968 132.87 H 0 **** 0.053
57025 H 115.517 126.3 134.427 H 0 **** 0.053
57026 H 114.922 128.852 131.95 H 0 **** 0.053
57027 H 113.402 130.603 132.295 H 0 **** 0.053
57028 H 111.544 128.596 133.608 H 0 **** 0.053
57029 H 111.21 130.323 133.446 H 0 **** 0.053
57030 H 112.274 129.537 135.708 H 0 **** 0.053
57031 H 112.992 130.947 134.937 H 0 **** 0.053
57032 H 112.006 129.362 129.175 H 0 **** 0.053
57033 H 112.083 127.203 129.883 H 0 **** 0.053
57034 H 114.356 126.538 131.405 H 0 **** 0.053
57035 H 112.696 126.792 131.959 H 0 **** 0.053
57036 H 114.603 130.183 130.578 H 0 **** 0.053
57037 H 116.571 126.051 126.177 H 0 **** 0.053
57038 H 116.762 125.996 127.949 H 0 **** 0.053
57039 H 114.895 124.443 127.298 H 0 **** 0.053
57040 H 114.18 125.708 126.286 H 0 **** 0.053
57041 H 113.11 125.294 128.7 H 0 **** 0.1268
57042 H 115.38 132.273 130.311 H 0 **** 0.053
57043 H 111.62 133.56 127.829 H 0 **** 0.053
57044 H 111.17 133.879 129.543 H 0 **** 0.053
57045 H 111.41 131.398 129.261 H 0 **** 0.1268
57046 H 111.986 136.108 128.359 H 0 **** 0.053
57047 H 112.601 136.225 130.026 H 0 **** 0.053
57048 H 113.937 137.777 128.625 H 0 **** 0.053
57049 H 114.261 136.487 127.447 H 0 **** 0.053
57050 H 116.403 133.833 131.279 H 0 **** 0.053
57051 H 117.323 133.857 129.775 H 0 **** 0.053
57052 H 116.909 136.117 131.778 H 0 **** 0.053
57053 H 118.22 136.187 129.01 H 0 **** 0.053
57054 H 118.416 137.478 130.2 H 0 **** 0.053
57055 H 116.517 137.842 128.5 H 0 **** 0.053
57056 H 116.062 138.002 130.216 H 0 **** 0.053
57057 H 116.204 134.139 127.569 H 0 **** 0.053
57058 H 119.789 134.83 123.552 H 0 **** 0.053
57059 H 121.321 134.958 121.773 H 0 **** 0.053
57060 H 118.754 127.368 123.814 H 0 **** 0.053
57061 H 125.682 134.932 118.437 H 0 **** 0.053
57062 H 124.396 135.726 120.195 H 0 **** 0.053
57063 H 122.114 135.942 118.19 H 0 **** 0.053
57064 H 123.438 138.014 118.43 H 0 **** 0.053
57065 H 123.839 138.029 120.165 H 0 **** 0.053
57066 H 126.248 137.377 119.473 H 0 **** 0.053
57067 H 125.795 139.015 118.984 H 0 **** 0.053
57068 H 125.471 138.417 116.723 H 0 **** 0.053
57069 H 124.112 136.62 116.489 H 0 **** 0.053
57070 H 126.613 134.904 116.287 H 0 **** 0.053
57071 H 125.156 134.843 115.266 H 0 **** 0.053
57072 H 125.785 137.128 114.398 H 0 **** 0.053
57073 H 127.052 135.959 114.037 H 0 **** 0.053
57074 H 127.618 138.371 115.214 H 0 **** 0.053
57075 H 128.6 136.95 115.539 H 0 **** 0.053
57076 H 127.652 136.715 117.585 H 0 **** 0.353
57077 H 119.083 124.821 120.371 H 0 **** 0.053
57078 H 119.192 124.347 122.81 H 0 **** 0.053
57079 H 121.922 125.652 123.015 H 0 **** 0.053
57080 H 121.141 124.524 124.107 H 0 **** 0.053
57081 H 122.83 123.143 123.141 H 0 **** 0.053
57082 H 122.77 123.98 121.584 H 0 **** 0.053
57083 H 120.534 122.16 122.637 H 0 **** 0.053
57084 H 121.763 121.62 121.473 H 0 **** 0.053
57085 H 119.39 122.446 120.559 H 0 **** 0.053
57086 H 120.861 122.966 119.707 H 0 **** 0.053
57087 H 122.684 125.673 118.504 H 0 **** 0.053
57088 H 124.254 125.879 116.655 H 0 **** 0.053
57089 H 125.503 133.243 116.729 H 0 **** 0.053
57090 H 126.692 133.379 114.549 H 0 **** 0.053
57091 H 127.005 132.011 112.727 H 0 **** 0.053
57092 H 129.818 131.592 113.908 H 0 **** 0.053
57093 H 128.493 134.202 113.059 H 0 **** 0.053
57094 H 130.256 134.04 113.234 H 0 **** 0.053
57095 H 128.739 134.844 115.332 H 0 **** 0.053
57096 H 130.193 133.864 115.567 H 0 **** 0.053
57097 H 127.959 133.119 116.781 H 0 **** 0.053
57098 H 128.897 131.854 115.982 H 0 **** 0.053
57099 H 118.551 134.272 132.297 H 0 **** 0.053
57100 H 120.741 134.215 131.175 H 0 **** 0.053
57101 H 120.257 135.513 130.058 H 0 **** 0.053
57102 H 119.487 133.913 129.954 H 0 **** 0.053
57103 H 118.682 136.518 133.354 H 0 **** 0.053
57104 H 119.7 137.105 132.017 H 0 **** 0.053
57105 H 120.305 135.835 133.108 H 0 **** 0.053
57106 H 120.845 136.063 120.056 H 0 **** 0.41
57107 H 126.43 125.194 113.725 H 0 **** 0.053
57108 H 127.46 124.047 111.626 H 0 **** 0.053
57109 H 128.849 124.199 109.498 H 0 **** 0.053
57110 H 130.274 124.284 107.367 H 0 **** 0.053
57111 H 131.648 125.745 105.64 H 0 **** 0.053
57112 H 133.036 130.488 105.367 H 0 **** 0.053
57113 H 132.561 128.052 104.924 H 0 **** 0.053
57114 H 130.426 133.603 111.194 H 0 **** 0.053
57115 H 130.485 134.535 109.42 H 0 **** 0.053
57116 H 132.233 134.503 109.719 H 0 **** 0.053
57117 H 131.749 136.01 107.802 H 0 **** 0.053
57118 H 130.81 134.742 107.009 H 0 **** 0.053
57119 H 133.828 134.585 107.657 H 0 **** 0.053
57120 H 133.166 134.794 106.019 H 0 **** 0.053
@<TRIPOS>BOND
1 1 2 un
2 1 6 un
3 1 56 1
4 3 2 un
5 2 58 1
6 4 3 un
7 3 10 1
8 5 4 un
9 4 7 1
10 6 5 un
11 5 57 1
12 6 54 1
13 8 7 1
14 7 70 1
15 7 71 1
16 9 8 un
17 8 14 un
18 10 9 1
19 9 11 un
20 10 72 1
21 10 73 1
22 12 11 un
23 11 59 1
24 13 12 un
25 12 60 1
26 14 13 un
27 13 18 un
28 14 15 un
29 16 15 un
30 15 74 1
31 17 16 un
32 16 22 un
33 18 17 un
34 17 19 1
35 18 61 1
36 20 19 1
37 19 26 1
38 21 20 1
39 20 23 1
40 22 21 un
41 21 30 un
42 22 27 un
43 24 23 1
44 23 75 1
45 23 76 1
46 25 24 un
47 24 63 1
48 24 77 1
49 26 25 1
50 25 62 1
51 25 78 1
52 26 79 1
53 26 80 1
54 28 27 un
55 27 65 1
56 29 28 un
57 28 34 1
58 30 29 un
59 29 31 1
60 30 64 1
61 32 31 1
62 31 67 2
63 33 32 un
64 32 38 un
65 34 33 1
66 33 35 1
67 34 66 2
68 36 35 1
69 35 81 1
70 35 82 1
71 37 36 1
72 36 83 1
73 36 84 1
74 38 37 un
75 37 42 un
76 38 39 un
77 40 39 un
78 41 40 un
79 40 49 un
80 42 41 un
81 41 46 1
82 42 43 1
83 44 43 1
84 43 85 1
85 43 86 1
86 45 44 1
87 44 87 1
88 44 88 1
89 46 45 1
90 45 89 1
91 45 90 1
92 46 47 1
93 46 91 1
94 48 47 1
95 47 92 1
96 47 93 1
97 49 48 un
98 48 53 un
99 49 50 un
100 51 50 un
101 50 94 1
102 52 51 un
103 51 95 1
104 53 52 un
105 52 69 1
106 53 68 1
107 54 55 1
108 54 96 1
109 54 97 1
110 55 98 1
111 55 99 1
112 55 100 1
113 56 101 1
114 56 102 1
115 56 103 1
116 57 104 1
117 57 105 1
118 57 106 1
119 58 107 1
120 58 108 1
121 58 109 1
122 59 110 1
123 59 111 1
124 59 112 1
125 60 113 1
126 60 114 1
127 60 115 1
128 61 116 1
129 62 117 1
130 62 118 1
131 62 119 1
132 63 120 1
133 63 121 1
134 63 122 1
135 64 123 1
136 65 124 1
137 68 125 1
138 68 126 1
139 68 127 1
140 69 128 1
141 69 129 1
142 69 130 1
143 131 132 un
144 131 136 un
145 131 186 1
146 133 132 un
147 132 188 1
148 134 133 un
149 133 140 1
150 135 134 un
151 134 137 1
152 136 135 un
153 135 187 1
154 136 184 1
155 138 137 1
156 137 200 1
157 137 201 1
158 139 138 un
159 138 144 un
160 140 139 1
161 139 141 un
162 140 202 1
163 140 203 1
164 142 141 un
165 141 189 1
166 143 142 un
167 142 190 1
168 144 143 un
169 143 148 un
170 144 145 un
171 146 145 un
172 145 204 1
173 147 146 un
174 146 152 un
175 148 147 un
176 147 149 1
177 148 191 1
178 150 149 1
179 149 156 1
180 151 150 1
181 150 153 1
182 152 151 un
183 151 160 un
184 152 157 un
185 154 153 1
186 153 205 1
187 153 206 1
188 155 154 un
189 154 193 1
190 154 207 1
191 156 155 1
192 155 192 1
193 155 208 1
194 156 209 1
195 156 210 1
196 158 157 un
197 157 195 1
198 159 158 un
199 158 164 1
200 160 159 un
201 159 161 1
202 160 194 1
203 162 161 1
204 161 197 2
205 163 162 un
206 162 168 un
207 164 163 1
208 163 165 1
209 164 196 2
210 166 165 1
211 165 211 1
212 165 212 1
213 167 166 1
214 166 213 1
215 166 214 1
216 168 167 un
217 167 172 un
218 168 169 un
219 170 169 un
220 171 170 un
221 170 179 un
222 172 171 un
223 171 176 1
224 172 173 1
225 174 173 1
226 173 215 1
227 173 216 1
228 175 174 1
229 174 217 1
230 174 218 1
231 176 175 1
232 175 219 1
233 175 220 1
234 176 177 1
235 176 221 1
236 178 177 1
237 177 222 1
238 177 223 1
239 179 178 un
240 178 183 un
241 179 180 un
242 181 180 un
243 180 224 1
244 182 181 un
245 181 225 1
246 183 182 un
247 182 199 1
248 183 198 1
249 184 185 1
250 184 226 1
251 184 227 1
252 185 228 1
253 185 229 1
254 185 230 1
255 186 231 1
256 186 232 1
257 186 233 1
258 187 234 1
259 187 235 1
260 187 236 1
261 188 237 1
262 188 238 1
263 188 239 1
264 189 240 1
265 189 241 1
266 189 242 1
267 190 243 1
268 190 244 1
269 190 245 1
270 191 246 1
271 192 247 1
272 192 248 1
273 192 249 1
274 193 250 1
275 193 251 1
276 193 252 1
277 194 253 1
278 195 254 1
279 198 255 1
280 198 256 1
281 198 257 1
282 199 258 1
283 199 259 1
284 199 260 1
285 261 262 un
286 261 266 un
287 261 316 1
288 263 262 un
289 262 318 1
290 264 263 un
291 263 270 1
292 265 264 un
293 264 267 1
294 266 265 un
295 265 317 1
296 266 314 1
297 268 267 1
298 267 330 1
299 267 331 1
300 269 268 un
301 268 274 un
302 270 269 1
303 269 271 un
304 270 332 1
305 270 333 1
306 272 271 un
307 271 319 1
308 273 272 un
309 272 320 1
310 274 273 un
311 273 278 un
312 274 275 un
313 276 275 un
314 275 334 1
315 277 276 un
316 276 282 un
317 278 277 un
318 277 279 1
319 278 321 1
320 280 279 1
321 279 286 1
322 281 280 1
323 280 283 1
324 282 281 un
325 281 290 un
326 282 287 un
327 284 283 1
328 283 335 1
329 283 336 1
330 285 284 un
331 284 323 1
332 284 337 1
333 286 285 1
334 285 322 1
335 285 338 1
336 286 339 1
337 286 340 1
338 288 287 un
339 287 325 1
340 289 288 un
341 288 294 1
342 290 289 un
343 289 291 1
344 290 324 1
345 292 291 1
346 291 327 2
347 293 292 un
348 292 298 un
349 294 293 1
350 293 295 1
351 294 326 2
352 296 295 1
353 295 341 1
354 295 342 1
355 297 296 1
356 296 343 1
357 296 344 1
358 298 297 un
359 297 302 un
360 298 299 un
361 300 299 un
362 301 300 un
363 300 309 un
364 302 301 un
365 301 306 1
366 302 303 1
367 304 303 1
368 303 345 1
369 303 346 1
370 305 304 1
371 304 347 1
372 304 348 1
373 306 305 1
374 305 349 1
375 305 350 1
376 306 307 1
377 306 351 1
378 308 307 1
379 307 352 1
380 307 353 1
381 309 308 un
382 308 313 un
383 309 310 un
384 311 310 un
385 310 354 1
386 312 311 un
387 311 355 1
388 313 312 un
389 312 329 1
390 313 328 1
391 314 315 1
392 314 356 1
393 314 357 1
394 315 358 1
395 315 359 1
396 315 360 1
397 316 361 1
398 316 362 1
399 316 363 1
400 317 364 1
401 317 365 1
402 317 366 1
403 318 367 1
404 318 368 1
405 318 369 1
406 319 370 1
407 319 371 1
408 319 372 1
409 320 373 1
410 320 374 1
411 320 375 1
412 321 376 1
413 322 377 1
414 322 378 1
415 322 379 1
416 323 380 1
417 323 381 1
418 323 382 1
419 324 383 1
420 325 384 1
421 328 385 1
422 328 386 1
423 328 387 1
424 329 388 1
425 329 389 1
426 329 390 1
427 391 392 un
428 391 396 un
429 391 446 1
430 393 392 un
431 392 448 1
432 394 393 un
433 393 400 1
434 395 394 un
435 394 397 1
436 396 395 un
437 395 447 1
438 396 444 1
439 398 397 1
440 397 460 1
441 397 461 1
442 399 398 un
443 398 404 un
444 400 399 1
445 399 401 un
446 400 462 1
447 400 463 1
448 402 401 un
449 401 449 1
450 403 402 un
451 402 450 1
452 404 403 un
453 403 408 un
454 404 405 un
455 406 405 un
456 405 464 1
457 407 406 un
458 406 412 un
459 408 407 un
460 407 409 1
461 408 451 1
462 410 409 1
463 409 416 1
464 411 410 1
465 410 413 1
466 412 411 un
467 411 420 un
468 412 417 un
469 414 413 1
470 413 465 1
471 413 466 1
472 415 414 un
473 414 453 1
474 414 467 1
475 416 415 1
476 415 452 1
477 415 468 1
478 416 469 1
479 416 470 1
480 418 417 un
481 417 455 1
482 419 418 un
483 418 424 1
484 420 419 un
485 419 421 1
486 420 454 1
487 422 421 1
488 421 457 2
489 423 422 un
490 422 428 un
491 424 423 1
492 423 425 1
493 424 456 2
494 426 425 1
495 425 471 1
496 425 472 1
497 427 426 1
498 426 473 1
499 426 474 1
500 428 427 un
501 427 432 un
502 428 429 un
503 430 429 un
504 431 430 un
505 430 439 un
506 432 431 un
507 431 436 1
508 432 433 1
509 434 433 1
510 433 475 1
511 433 476 1
512 435 434 1
513 434 477 1
514 434 478 1
515 436 435 1
516 435 479 1
517 435 480 1
518 436 437 1
519 436 481 1
520 438 437 1
521 437 482 1
522 437 483 1
523 439 438 un
524 438 443 un
525 439 440 un
526 441 440 un
527 440 484 1
528 442 441 un
529 441 485 1
530 443 442 un
531 442 459 1
532 443 458 1
533 444 445 1
534 444 486 1
535 444 487 1
536 445 488 1
537 445 489 1
538 445 490 1
539 446 491 1
540 446 492 1
541 446 493 1
542 447 494 1
543 447 495 1
544 447 496 1
545 448 497 1
546 448 498 1
547 448 499 1
548 449 500 1
549 449 501 1
550 449 502 1
551 450 503 1
552 450 504 1
553 450 505 1
554 451 506 1
555 452 507 1
556 452 508 1
557 452 509 1
558 453 510 1
559 453 511 1
560 453 512 1
561 454 513 1
562 455 514 1
563 458 515 1
564 458 516 1
565 458 517 1
566 459 518 1
567 459 519 1
568 459 520 1
569 521 522 un
570 521 526 un
571 521 576 1
572 523 522 un
573 522 578 1
574 524 523 un
575 523 530 1
576 525 524 un
577 524 527 1
578 526 525 un
579 525 577 1
580 526 574 1
581 528 527 1
582 527 590 1
583 527 591 1
584 529 528 un
585 528 534 un
586 530 529 1
587 529 531 un
588 530 592 1
589 530 593 1
590 532 531 un
591 531 579 1
592 533 532 un
593 532 580 1
594 534 533 un
595 533 538 un
596 534 535 un
597 536 535 un
598 535 594 1
599 537 536 un
600 536 542 un
601 538 537 un
602 537 539 1
603 538 581 1
604 540 539 1
605 539 546 1
606 541 540 1
607 540 543 1
608 542 541 un
609 541 550 un
610 542 547 un
611 544 543 1
612 543 595 1
613 543 596 1
614 545 544 un
615 544 583 1
616 544 597 1
617 546 545 1
618 545 582 1
619 545 598 1
620 546 599 1
621 546 600 1
622 548 547 un
623 547 585 1
624 549 548 un
625 548 554 1
626 550 549 un
627 549 551 1
628 550 584 1
629 552 551 1
630 551 587 2
631 553 552 un
632 552 558 un
633 554 553 1
634 553 555 1
635 554 586 2
636 556 555 1
637 555 601 1
638 555 602 1
639 557 556 1
640 556 603 1
641 556 604 1
642 558 557 un
643 557 562 un
644 558 559 un
645 560 559 un
646 561 560 un
647 560 569 un
648 562 561 un
649 561 566 1
650 562 563 1
651 564 563 1
652 563 605 1
653 563 606 1
654 565 564 1
655 564 607 1
656 564 608 1
657 566 565 1
658 565 609 1
659 565 610 1
660 566 567 1
661 566 611 1
662 568 567 1
663 567 612 1
664 567 613 1
665 569 568 un
666 568 573 un
667 569 570 un
668 571 570 un
669 570 614 1
670 572 571 un
671 571 615 1
672 573 572 un
673 572 589 1
674 573 588 1
675 574 575 1
676 574 616 1
677 574 617 1
678 575 618 1
679 575 619 1
680 575 620 1
681 576 621 1
682 576 622 1
683 576 623 1
684 577 624 1
685 577 625 1
686 577 626 1
687 578 627 1
688 578 628 1
689 578 629 1
690 579 630 1
691 579 631 1
692 579 632 1
693 580 633 1
694 580 634 1
695 580 635 1
696 581 636 1
697 582 637 1
698 582 638 1
699 582 639 1
700 583 640 1
701 583 641 1
702 583 642 1
703 584 643 1
704 585 644 1
705 588 645 1
706 588 646 1
707 588 647 1
708 589 648 1
709 589 649 1
710 589 650 1
711 651 652 un
712 651 656 un
713 651 706 1
714 653 652 un
715 652 708 1
716 654 653 un
717 653 660 1
718 655 654 un
719 654 657 1
720 656 655 un
721 655 707 1
722 656 704 1
723 658 657 1
724 657 720 1
725 657 721 1
726 659 658 un
727 658 664 un
728 660 659 1
729 659 661 un
730 660 722 1
731 660 723 1
732 662 661 un
733 661 709 1
734 663 662 un
735 662 710 1
736 664 663 un
737 663 668 un
738 664 665 un
739 666 665 un
740 665 724 1
741 667 666 un
742 666 672 un
743 668 667 un
744 667 669 1
745 668 711 1
746 670 669 1
747 669 676 1
748 671 670 1
749 670 673 1
750 672 671 un
751 671 680 un
752 672 677 un
753 674 673 1
754 673 725 1
755 673 726 1
756 675 674 un
757 674 713 1
758 674 727 1
759 676 675 1
760 675 712 1
761 675 728 1
762 676 729 1
763 676 730 1
764 678 677 un
765 677 715 1
766 679 678 un
767 678 684 1
768 680 679 un
769 679 681 1
770 680 714 1
771 682 681 1
772 681 717 2
773 683 682 un
774 682 688 un
775 684 683 1
776 683 685 1
777 684 716 2
778 686 685 1
779 685 731 1
780 685 732 1
781 687 686 1
782 686 733 1
783 686 734 1
784 688 687 un
785 687 692 un
786 688 689 un
787 690 689 un
788 691 690 un
789 690 699 un
790 692 691 un
791 691 696 1
792 692 693 1
793 694 693 1
794 693 735 1
795 693 736 1
796 695 694 1
797 694 737 1
798 694 738 1
799 696 695 1
800 695 739 1
801 695 740 1
802 696 697 1
803 696 741 1
804 698 697 1
805 697 742 1
806 697 743 1
807 699 698 un
808 698 703 un
809 699 700 un
810 701 700 un
811 700 744 1
812 702 701 un
813 701 745 1
814 703 702 un
815 702 719 1
816 703 718 1
817 704 705 1
818 704 746 1
819 704 747 1
820 705 748 1
821 705 749 1
822 705 750 1
823 706 751 1
824 706 752 1
825 706 753 1
826 707 754 1
827 707 755 1
828 707 756 1
829 708 757 1
830 708 758 1
831 708 759 1
832 709 760 1
833 709 761 1
834 709 762 1
835 710 763 1
836 710 764 1
837 710 765 1
838 711 766 1
839 712 767 1
840 712 768 1
841 712 769 1
842 713 770 1
843 713 771 1
844 713 772 1
845 714 773 1
846 715 774 1
847 718 775 1
848 718 776 1
849 718 777 1
850 719 778 1
851 719 779 1
852 719 780 1
853 781 782 un
854 781 786 un
855 781 836 1
856 783 782 un
857 782 838 1
858 784 783 un
859 783 790 1
860 785 784 un
861 784 787 1
862 786 785 un
863 785 837 1
864 786 834 1
865 788 787 1
866 787 850 1
867 787 851 1
868 789 788 un
869 788 794 un
870 790 789 1
871 789 791 un
872 790 852 1
873 790 853 1
874 792 791 un
875 791 839 1
876 793 792 un
877 792 840 1
878 794 793 un
879 793 798 un
880 794 795 un
881 796 795 un
882 795 854 1
883 797 796 un
884 796 802 un
885 798 797 un
886 797 799 1
887 798 841 1
888 800 799 1
889 799 806 1
890 801 800 1
891 800 803 1
892 802 801 un
893 801 810 un
894 802 807 un
895 804 803 1
896 803 855 1
897 803 856 1
898 805 804 un
899 804 843 1
900 804 857 1
901 806 805 1
902 805 842 1
903 805 858 1
904 806 859 1
905 806 860 1
906 808 807 un
907 807 845 1
908 809 808 un
909 808 814 1
910 810 809 un
911 809 811 1
912 810 844 1
913 812 811 1
914 811 847 2
915 813 812 un
916 812 818 un
917 814 813 1
918 813 815 1
919 814 846 2
920 816 815 1
921 815 861 1
922 815 862 1
923 817 816 1
924 816 863 1
925 816 864 1
926 818 817 un
927 817 822 un
928 818 819 un
929 820 819 un
930 821 820 un
931 820 829 un
932 822 821 un
933 821 826 1
934 822 823 1
935 824 823 1
936 823 865 1
937 823 866 1
938 825 824 1
939 824 867 1
940 824 868 1
941 826 825 1
942 825 869 1
943 825 870 1
944 826 827 1
945 826 871 1
946 828 827 1
947 827 872 1
948 827 873 1
949 829 828 un
950 828 833 un
951 829 830 un
952 831 830 un
953 830 874 1
954 832 831 un
955 831 875 1
956 833 832 un
957 832 849 1
958 833 848 1
959 834 835 1
960 834 876 1
961 834 877 1
962 835 878 1
963 835 879 1
964 835 880 1
965 836 881 1
966 836 882 1
967 836 883 1
968 837 884 1
969 837 885 1
970 837 886 1
971 838 887 1
972 838 888 1
973 838 889 1
974 839 890 1
975 839 891 1
976 839 892 1
977 840 893 1
978 840 894 1
979 840 895 1
980 841 896 1
981 842 897 1
982 842 898 1
983 842 899 1
984 843 900 1
985 843 901 1
986 843 902 1
987 844 903 1
988 845 904 1
989 848 905 1
990 848 906 1
991 848 907 1
992 849 908 1
993 849 909 1
994 849 910 1
995 911 912 un
996 911 916 un
997 911 966 1
998 913 912 un
999 912 968 1
1000 914 913 un
1001 913 920 1
1002 915 914 un
1003 914 917 1
1004 916 915 un
1005 915 967 1
1006 916 964 1
1007 918 917 1
1008 917 980 1
1009 917 981 1
1010 919 918 un
1011 918 924 un
1012 920 919 1
1013 919 921 un
1014 920 982 1
1015 920 983 1
1016 922 921 un
1017 921 969 1
1018 923 922 un
1019 922 970 1
1020 924 923 un
1021 923 928 un
1022 924 925 un
1023 926 925 un
1024 925 984 1
1025 927 926 un
1026 926 932 un
1027 928 927 un
1028 927 929 1
1029 928 971 1
1030 930 929 1
1031 929 936 1
1032 931 930 1
1033 930 933 1
1034 932 931 un
1035 931 940 un
1036 932 937 un
1037 934 933 1
1038 933 985 1
1039 933 986 1
1040 935 934 un
1041 934 973 1
1042 934 987 1
1043 936 935 1
1044 935 972 1
1045 935 988 1
1046 936 989 1
1047 936 990 1
1048 938 937 un
1049 937 975 1
1050 939 938 un
1051 938 944 1
1052 940 939 un
1053 939 941 1
1054 940 974 1
1055 942 941 1
1056 941 977 2
1057 943 942 un
1058 942 948 un
1059 944 943 1
1060 943 945 1
1061 944 976 2
1062 946 945 1
1063 945 991 1
1064 945 992 1
1065 947 946 1
1066 946 993 1
1067 946 994 1
1068 948 947 un
1069 947 952 un
1070 948 949 un
1071 950 949 un
1072 951 950 un
1073 950 959 un
1074 952 951 un
1075 951 956 1
1076 952 953 1
1077 954 953 1
1078 953 995 1
1079 953 996 1
1080 955 954 1
1081 954 997 1
1082 954 998 1
1083 956 955 1
1084 955 999 1
1085 955 1000 1
1086 956 957 1
1087 956 1001 1
1088 958 957 1
1089 957 1002 1
1090 957 1003 1
1091 959 958 un
1092 958 963 un
1093 959 960 un
1094 961 960 un
1095 960 1004 1
1096 962 961 un
1097 961 1005 1
1098 963 962 un
1099 962 979 1
1100 963 978 1
1101 964 965 1
1102 964 1006 1
1103 964 1007 1
1104 965 1008 1
1105 965 1009 1
1106 965 1010 1
1107 966 1011 1
1108 966 1012 1
1109 966 1013 1
1110 967 1014 1
1111 967 1015 1
1112 967 1016 1
1113 968 1017 1
1114 968 1018 1
1115 968 1019 1
1116 969 1020 1
1117 969 1021 1
1118 969 1022 1
1119 970 1023 1
1120 970 1024 1
1121 970 1025 1
1122 971 1026 1
1123 972 1027 1
1124 972 1028 1
1125 972 1029 1
1126 973 1030 1
1127 973 1031 1
1128 973 1032 1
1129 974 1033 1
1130 975 1034 1
1131 978 1035 1
1132 978 1036 1
1133 978 1037 1
1134 979 1038 1
1135 979 1039 1
1136 979 1040 1
1137 1041 1042 un
1138 1041 1046 un
1139 1041 1096 1
1140 1043 1042 un
1141 1042 1098 1
1142 1044 1043 un
1143 1043 1050 1
1144 1045 1044 un
1145 1044 1047 1
1146 1046 1045 un
1147 1045 1097 1
1148 1046 1094 1
1149 1048 1047 1
1150 1047 1110 1
1151 1047 1111 1
1152 1049 1048 un
1153 1048 1054 un
1154 1050 1049 1
1155 1049 1051 un
1156 1050 1112 1
1157 1050 1113 1
1158 1052 1051 un
1159 1051 1099 1
1160 1053 1052 un
1161 1052 1100 1
1162 1054 1053 un
1163 1053 1058 un
1164 1054 1055 un
1165 1056 1055 un
1166 1055 1114 1
1167 1057 1056 un
1168 1056 1062 un
1169 1058 1057 un
1170 1057 1059 1
1171 1058 1101 1
1172 1060 1059 1
1173 1059 1066 1
1174 1061 1060 1
1175 1060 1063 1
1176 1062 1061 un
1177 1061 1070 un
1178 1062 1067 un
1179 1064 1063 1
1180 1063 1115 1
1181 1063 1116 1
1182 1065 1064 un
1183 1064 1103 1
1184 1064 1117 1
1185 1066 1065 1
1186 1065 1102 1
1187 1065 1118 1
1188 1066 1119 1
1189 1066 1120 1
1190 1068 1067 un
1191 1067 1105 1
1192 1069 1068 un
1193 1068 1074 1
1194 1070 1069 un
1195 1069 1071 1
1196 1070 1104 1
1197 1072 1071 1
1198 1071 1107 2
1199 1073 1072 un
1200 1072 1078 un
1201 1074 1073 1
1202 1073 1075 1
1203 1074 1106 2
1204 1076 1075 1
1205 1075 1121 1
1206 1075 1122 1
1207 1077 1076 1
1208 1076 1123 1
1209 1076 1124 1
1210 1078 1077 un
1211 1077 1082 un
1212 1078 1079 un
1213 1080 1079 un
1214 1081 1080 un
1215 1080 1089 un
1216 1082 1081 un
1217 1081 1086 1
1218 1082 1083 1
1219 1084 1083 1
1220 1083 1125 1
1221 1083 1126 1
1222 1085 1084 1
1223 1084 1127 1
1224 1084 1128 1
1225 1086 1085 1
1226 1085 1129 1
1227 1085 1130 1
1228 1086 1087 1
1229 1086 1131 1
1230 1088 1087 1
1231 1087 1132 1
1232 1087 1133 1
1233 1089 1088 un
1234 1088 1093 un
1235 1089 1090 un
1236 1091 1090 un
1237 1090 1134 1
1238 1092 1091 un
1239 1091 1135 1
1240 1093 1092 un
1241 1092 1109 1
1242 1093 1108 1
1243 1094 1095 1
1244 1094 1136 1
1245 1094 1137 1
1246 1095 1138 1
1247 1095 1139 1
1248 1095 1140 1
1249 1096 1141 1
1250 1096 1142 1
1251 1096 1143 1
1252 1097 1144 1
1253 1097 1145 1
1254 1097 1146 1
1255 1098 1147 1
1256 1098 1148 1
1257 1098 1149 1
1258 1099 1150 1
1259 1099 1151 1
1260 1099 1152 1
1261 1100 1153 1
1262 1100 1154 1
1263 1100 1155 1
1264 1101 1156 1
1265 1102 1157 1
1266 1102 1158 1
1267 1102 1159 1
1268 1103 1160 1
1269 1103 1161 1
1270 1103 1162 1
1271 1104 1163 1
1272 1105 1164 1
1273 1108 1165 1
1274 1108 1166 1
1275 1108 1167 1
1276 1109 1168 1
1277 1109 1169 1
1278 1109 1170 1
1279 1171 1172 un
1280 1171 1176 un
1281 1171 1226 1
1282 1173 1172 un
1283 1172 1228 1
1284 1174 1173 un
1285 1173 1180 1
1286 1175 1174 un
1287 1174 1177 1
1288 1176 1175 un
1289 1175 1227 1
1290 1176 1224 1
1291 1178 1177 1
1292 1177 1240 1
1293 1177 1241 1
1294 1179 1178 un
1295 1178 1184 un
1296 1180 1179 1
1297 1179 1181 un
1298 1180 1242 1
1299 1180 1243 1
1300 1182 1181 un
1301 1181 1229 1
1302 1183 1182 un
1303 1182 1230 1
1304 1184 1183 un
1305 1183 1188 un
1306 1184 1185 un
1307 1186 1185 un
1308 1185 1244 1
1309 1187 1186 un
1310 1186 1192 un
1311 1188 1187 un
1312 1187 1189 1
1313 1188 1231 1
1314 1190 1189 1
1315 1189 1196 1
1316 1191 1190 1
1317 1190 1193 1
1318 1192 1191 un
1319 1191 1200 un
1320 1192 1197 un
1321 1194 1193 1
1322 1193 1245 1
1323 1193 1246 1
1324 1195 1194 un
1325 1194 1233 1
1326 1194 1247 1
1327 1196 1195 1
1328 1195 1232 1
1329 1195 1248 1
1330 1196 1249 1
1331 1196 1250 1
1332 1198 1197 un
1333 1197 1235 1
1334 1199 1198 un
1335 1198 1204 1
1336 1200 1199 un
1337 1199 1201 1
1338 1200 1234 1
1339 1202 1201 1
1340 1201 1237 2
1341 1203 1202 un
1342 1202 1208 un
1343 1204 1203 1
1344 1203 1205 1
1345 1204 1236 2
1346 1206 1205 1
1347 1205 1251 1
1348 1205 1252 1
1349 1207 1206 1
1350 1206 1253 1
1351 1206 1254 1
1352 1208 1207 un
1353 1207 1212 un
1354 1208 1209 un
1355 1210 1209 un
1356 1211 1210 un
1357 1210 1219 un
1358 1212 1211 un
1359 1211 1216 1
1360 1212 1213 1
1361 1214 1213 1
1362 1213 1255 1
1363 1213 1256 1
1364 1215 1214 1
1365 1214 1257 1
1366 1214 1258 1
1367 1216 1215 1
1368 1215 1259 1
1369 1215 1260 1
1370 1216 1217 1
1371 1216 1261 1
1372 1218 1217 1
1373 1217 1262 1
1374 1217 1263 1
1375 1219 1218 un
1376 1218 1223 un
1377 1219 1220 un
1378 1221 1220 un
1379 1220 1264 1
1380 1222 1221 un
1381 1221 1265 1
1382 1223 1222 un
1383 1222 1239 1
1384 1223 1238 1
1385 1224 1225 1
1386 1224 1266 1
1387 1224 1267 1
1388 1225 1268 1
1389 1225 1269 1
1390 1225 1270 1
1391 1226 1271 1
1392 1226 1272 1
1393 1226 1273 1
1394 1227 1274 1
1395 1227 1275 1
1396 1227 1276 1
1397 1228 1277 1
1398 1228 1278 1
1399 1228 1279 1
1400 1229 1280 1
1401 1229 1281 1
1402 1229 1282 1
1403 1230 1283 1
1404 1230 1284 1
1405 1230 1285 1
1406 1231 1286 1
1407 1232 1287 1
1408 1232 1288 1
1409 1232 1289 1
1410 1233 1290 1
1411 1233 1291 1
1412 1233 1292 1
1413 1234 1293 1
1414 1235 1294 1
1415 1238 1295 1
1416 1238 1296 1
1417 1238 1297 1
1418 1239 1298 1
1419 1239 1299 1
1420 1239 1300 1
1421 1301 1302 un
1422 1301 1306 un
1423 1301 1356 1
1424 1303 1302 un
1425 1302 1358 1
1426 1304 1303 un
1427 1303 1310 1
1428 1305 1304 un
1429 1304 1307 1
1430 1306 1305 un
1431 1305 1357 1
1432 1306 1354 1
1433 1308 1307 1
1434 1307 1370 1
1435 1307 1371 1
1436 1309 1308 un
1437 1308 1314 un
1438 1310 1309 1
1439 1309 1311 un
1440 1310 1372 1
1441 1310 1373 1
1442 1312 1311 un
1443 1311 1359 1
1444 1313 1312 un
1445 1312 1360 1
1446 1314 1313 un
1447 1313 1318 un
1448 1314 1315 un
1449 1316 1315 un
1450 1315 1374 1
1451 1317 1316 un
1452 1316 1322 un
1453 1318 1317 un
1454 1317 1319 1
1455 1318 1361 1
1456 1320 1319 1
1457 1319 1326 1
1458 1321 1320 1
1459 1320 1323 1
1460 1322 1321 un
1461 1321 1330 un
1462 1322 1327 un
1463 1324 1323 1
1464 1323 1375 1
1465 1323 1376 1
1466 1325 1324 un
1467 1324 1363 1
1468 1324 1377 1
1469 1326 1325 1
1470 1325 1362 1
1471 1325 1378 1
1472 1326 1379 1
1473 1326 1380 1
1474 1328 1327 un
1475 1327 1365 1
1476 1329 1328 un
1477 1328 1334 1
1478 1330 1329 un
1479 1329 1331 1
1480 1330 1364 1
1481 1332 1331 1
1482 1331 1367 2
1483 1333 1332 un
1484 1332 1338 un
1485 1334 1333 1
1486 1333 1335 1
1487 1334 1366 2
1488 1336 1335 1
1489 1335 1381 1
1490 1335 1382 1
1491 1337 1336 1
1492 1336 1383 1
1493 1336 1384 1
1494 1338 1337 un
1495 1337 1342 un
1496 1338 1339 un
1497 1340 1339 un
1498 1341 1340 un
1499 1340 1349 un
1500 1342 1341 un
1501 1341 1346 1
1502 1342 1343 1
1503 1344 1343 1
1504 1343 1385 1
1505 1343 1386 1
1506 1345 1344 1
1507 1344 1387 1
1508 1344 1388 1
1509 1346 1345 1
1510 1345 1389 1
1511 1345 1390 1
1512 1346 1347 1
1513 1346 1391 1
1514 1348 1347 1
1515 1347 1392 1
1516 1347 1393 1
1517 1349 1348 un
1518 1348 1353 un
1519 1349 1350 un
1520 1351 1350 un
1521 1350 1394 1
1522 1352 1351 un
1523 1351 1395 1
1524 1353 1352 un
1525 1352 1369 1
1526 1353 1368 1
1527 1354 1355 1
1528 1354 1396 1
1529 1354 1397 1
1530 1355 1398 1
1531 1355 1399 1
1532 1355 1400 1
1533 1356 1401 1
1534 1356 1402 1
1535 1356 1403 1
1536 1357 1404 1
1537 1357 1405 1
1538 1357 1406 1
1539 1358 1407 1
1540 1358 1408 1
1541 1358 1409 1
1542 1359 1410 1
1543 1359 1411 1
1544 1359 1412 1
1545 1360 1413 1
1546 1360 1414 1
1547 1360 1415 1
1548 1361 1416 1
1549 1362 1417 1
1550 1362 1418 1
1551 1362 1419 1
1552 1363 1420 1
1553 1363 1421 1
1554 1363 1422 1
1555 1364 1423 1
1556 1365 1424 1
1557 1368 1425 1
1558 1368 1426 1
1559 1368 1427 1
1560 1369 1428 1
1561 1369 1429 1
1562 1369 1430 1
1563 1431 1432 un
1564 1431 1436 un
1565 1431 1486 1
1566 1433 1432 un
1567 1432 1488 1
1568 1434 1433 un
1569 1433 1440 1
1570 1435 1434 un
1571 1434 1437 1
1572 1436 1435 un
1573 1435 1487 1
1574 1436 1484 1
1575 1438 1437 1
1576 1437 1500 1
1577 1437 1501 1
1578 1439 1438 un
1579 1438 1444 un
1580 1440 1439 1
1581 1439 1441 un
1582 1440 1502 1
1583 1440 1503 1
1584 1442 1441 un
1585 1441 1489 1
1586 1443 1442 un
1587 1442 1490 1
1588 1444 1443 un
1589 1443 1448 un
1590 1444 1445 un
1591 1446 1445 un
1592 1445 1504 1
1593 1447 1446 un
1594 1446 1452 un
1595 1448 1447 un
1596 1447 1449 1
1597 1448 1491 1
1598 1450 1449 1
1599 1449 1456 1
1600 1451 1450 1
1601 1450 1453 1
1602 1452 1451 un
1603 1451 1460 un
1604 1452 1457 un
1605 1454 1453 1
1606 1453 1505 1
1607 1453 1506 1
1608 1455 1454 un
1609 1454 1493 1
1610 1454 1507 1
1611 1456 1455 1
1612 1455 1492 1
1613 1455 1508 1
1614 1456 1509 1
1615 1456 1510 1
1616 1458 1457 un
1617 1457 1495 1
1618 1459 1458 un
1619 1458 1464 1
1620 1460 1459 un
1621 1459 1461 1
1622 1460 1494 1
1623 1462 1461 1
1624 1461 1497 2
1625 1463 1462 un
1626 1462 1468 un
1627 1464 1463 1
1628 1463 1465 1
1629 1464 1496 2
1630 1466 1465 1
1631 1465 1511 1
1632 1465 1512 1
1633 1467 1466 1
1634 1466 1513 1
1635 1466 1514 1
1636 1468 1467 un
1637 1467 1472 un
1638 1468 1469 un
1639 1470 1469 un
1640 1471 1470 un
1641 1470 1479 un
1642 1472 1471 un
1643 1471 1476 1
1644 1472 1473 1
1645 1474 1473 1
1646 1473 1515 1
1647 1473 1516 1
1648 1475 1474 1
1649 1474 1517 1
1650 1474 1518 1
1651 1476 1475 1
1652 1475 1519 1
1653 1475 1520 1
1654 1476 1477 1
1655 1476 1521 1
1656 1478 1477 1
1657 1477 1522 1
1658 1477 1523 1
1659 1479 1478 un
1660 1478 1483 un
1661 1479 1480 un
1662 1481 1480 un
1663 1480 1524 1
1664 1482 1481 un
1665 1481 1525 1
1666 1483 1482 un
1667 1482 1499 1
1668 1483 1498 1
1669 1484 1485 1
1670 1484 1526 1
1671 1484 1527 1
1672 1485 1528 1
1673 1485 1529 1
1674 1485 1530 1
1675 1486 1531 1
1676 1486 1532 1
1677 1486 1533 1
1678 1487 1534 1
1679 1487 1535 1
1680 1487 1536 1
1681 1488 1537 1
1682 1488 1538 1
1683 1488 1539 1
1684 1489 1540 1
1685 1489 1541 1
1686 1489 1542 1
1687 1490 1543 1
1688 1490 1544 1
1689 1490 1545 1
1690 1491 1546 1
1691 1492 1547 1
1692 1492 1548 1
1693 1492 1549 1
1694 1493 1550 1
1695 1493 1551 1
1696 1493 1552 1
1697 1494 1553 1
1698 1495 1554 1
1699 1498 1555 1
1700 1498 1556 1
1701 1498 1557 1
1702 1499 1558 1
1703 1499 1559 1
1704 1499 1560 1
1705 1561 1562 un
1706 1561 1566 un
1707 1561 1616 1
1708 1563 1562 un
1709 1562 1618 1
1710 1564 1563 un
1711 1563 1570 1
1712 1565 1564 un
1713 1564 1567 1
1714 1566 1565 un
1715 1565 1617 1
1716 1566 1614 1
1717 1568 1567 1
1718 1567 1630 1
1719 1567 1631 1
1720 1569 1568 un
1721 1568 1574 un
1722 1570 1569 1
1723 1569 1571 un
1724 1570 1632 1
1725 1570 1633 1
1726 1572 1571 un
1727 1571 1619 1
1728 1573 1572 un
1729 1572 1620 1
1730 1574 1573 un
1731 1573 1578 un
1732 1574 1575 un
1733 1576 1575 un
1734 1575 1634 1
1735 1577 1576 un
1736 1576 1582 un
1737 1578 1577 un
1738 1577 1579 1
1739 1578 1621 1
1740 1580 1579 1
1741 1579 1586 1
1742 1581 1580 1
1743 1580 1583 1
1744 1582 1581 un
1745 1581 1590 un
1746 1582 1587 un
1747 1584 1583 1
1748 1583 1635 1
1749 1583 1636 1
1750 1585 1584 un
1751 1584 1623 1
1752 1584 1637 1
1753 1586 1585 1
1754 1585 1622 1
1755 1585 1638 1
1756 1586 1639 1
1757 1586 1640 1
1758 1588 1587 un
1759 1587 1625 1
1760 1589 1588 un
1761 1588 1594 1
1762 1590 1589 un
1763 1589 1591 1
1764 1590 1624 1
1765 1592 1591 1
1766 1591 1627 2
1767 1593 1592 un
1768 1592 1598 un
1769 1594 1593 1
1770 1593 1595 1
1771 1594 1626 2
1772 1596 1595 1
1773 1595 1641 1
1774 1595 1642 1
1775 1597 1596 1
1776 1596 1643 1
1777 1596 1644 1
1778 1598 1597 un
1779 1597 1602 un
1780 1598 1599 un
1781 1600 1599 un
1782 1601 1600 un
1783 1600 1609 un
1784 1602 1601 un
1785 1601 1606 1
1786 1602 1603 1
1787 1604 1603 1
1788 1603 1645 1
1789 1603 1646 1
1790 1605 1604 1
1791 1604 1647 1
1792 1604 1648 1
1793 1606 1605 1
1794 1605 1649 1
1795 1605 1650 1
1796 1606 1607 1
1797 1606 1651 1
1798 1608 1607 1
1799 1607 1652 1
1800 1607 1653 1
1801 1609 1608 un
1802 1608 1613 un
1803 1609 1610 un
1804 1611 1610 un
1805 1610 1654 1
1806 1612 1611 un
1807 1611 1655 1
1808 1613 1612 un
1809 1612 1629 1
1810 1613 1628 1
1811 1614 1615 1
1812 1614 1656 1
1813 1614 1657 1
1814 1615 1658 1
1815 1615 1659 1
1816 1615 1660 1
1817 1616 1661 1
1818 1616 1662 1
1819 1616 1663 1
1820 1617 1664 1
1821 1617 1665 1
1822 1617 1666 1
1823 1618 1667 1
1824 1618 1668 1
1825 1618 1669 1
1826 1619 1670 1
1827 1619 1671 1
1828 1619 1672 1
1829 1620 1673 1
1830 1620 1674 1
1831 1620 1675 1
1832 1621 1676 1
1833 1622 1677 1
1834 1622 1678 1
1835 1622 1679 1
1836 1623 1680 1
1837 1623 1681 1
1838 1623 1682 1
1839 1624 1683 1
1840 1625 1684 1
1841 1628 1685 1
1842 1628 1686 1
1843 1628 1687 1
1844 1629 1688 1
1845 1629 1689 1
1846 1629 1690 1
1847 1691 1692 un
1848 1691 1696 un
1849 1691 1746 1
1850 1693 1692 un
1851 1692 1748 1
1852 1694 1693 un
1853 1693 1700 1
1854 1695 1694 un
1855 1694 1697 1
1856 1696 1695 un
1857 1695 1747 1
1858 1696 1744 1
1859 1698 1697 1
1860 1697 1760 1
1861 1697 1761 1
1862 1699 1698 un
1863 1698 1704 un
1864 1700 1699 1
1865 1699 1701 un
1866 1700 1762 1
1867 1700 1763 1
1868 1702 1701 un
1869 1701 1749 1
1870 1703 1702 un
1871 1702 1750 1
1872 1704 1703 un
1873 1703 1708 un
1874 1704 1705 un
1875 1706 1705 un
1876 1705 1764 1
1877 1707 1706 un
1878 1706 1712 un
1879 1708 1707 un
1880 1707 1709 1
1881 1708 1751 1
1882 1710 1709 1
1883 1709 1716 1
1884 1711 1710 1
1885 1710 1713 1
1886 1712 1711 un
1887 1711 1720 un
1888 1712 1717 un
1889 1714 1713 1
1890 1713 1765 1
1891 1713 1766 1
1892 1715 1714 un
1893 1714 1753 1
1894 1714 1767 1
1895 1716 1715 1
1896 1715 1752 1
1897 1715 1768 1
1898 1716 1769 1
1899 1716 1770 1
1900 1718 1717 un
1901 1717 1755 1
1902 1719 1718 un
1903 1718 1724 1
1904 1720 1719 un
1905 1719 1721 1
1906 1720 1754 1
1907 1722 1721 1
1908 1721 1757 2
1909 1723 1722 un
1910 1722 1728 un
1911 1724 1723 1
1912 1723 1725 1
1913 1724 1756 2
1914 1726 1725 1
1915 1725 1771 1
1916 1725 1772 1
1917 1727 1726 1
1918 1726 1773 1
1919 1726 1774 1
1920 1728 1727 un
1921 1727 1732 un
1922 1728 1729 un
1923 1730 1729 un
1924 1731 1730 un
1925 1730 1739 un
1926 1732 1731 un
1927 1731 1736 1
1928 1732 1733 1
1929 1734 1733 1
1930 1733 1775 1
1931 1733 1776 1
1932 1735 1734 1
1933 1734 1777 1
1934 1734 1778 1
1935 1736 1735 1
1936 1735 1779 1
1937 1735 1780 1
1938 1736 1737 1
1939 1736 1781 1
1940 1738 1737 1
1941 1737 1782 1
1942 1737 1783 1
1943 1739 1738 un
1944 1738 1743 un
1945 1739 1740 un
1946 1741 1740 un
1947 1740 1784 1
1948 1742 1741 un
1949 1741 1785 1
1950 1743 1742 un
1951 1742 1759 1
1952 1743 1758 1
1953 1744 1745 1
1954 1744 1786 1
1955 1744 1787 1
1956 1745 1788 1
1957 1745 1789 1
1958 1745 1790 1
1959 1746 1791 1
1960 1746 1792 1
1961 1746 1793 1
1962 1747 1794 1
1963 1747 1795 1
1964 1747 1796 1
1965 1748 1797 1
1966 1748 1798 1
1967 1748 1799 1
1968 1749 1800 1
1969 1749 1801 1
1970 1749 1802 1
1971 1750 1803 1
1972 1750 1804 1
1973 1750 1805 1
1974 1751 1806 1
1975 1752 1807 1
1976 1752 1808 1
1977 1752 1809 1
1978 1753 1810 1
1979 1753 1811 1
1980 1753 1812 1
1981 1754 1813 1
1982 1755 1814 1
1983 1758 1815 1
1984 1758 1816 1
1985 1758 1817 1
1986 1759 1818 1
1987 1759 1819 1
1988 1759 1820 1
1989 1821 1822 un
1990 1821 1826 un
1991 1821 1876 1
1992 1823 1822 un
1993 1822 1878 1
1994 1824 1823 un
1995 1823 1830 1
1996 1825 1824 un
1997 1824 1827 1
1998 1826 1825 un
1999 1825 1877 1
2000 1826 1874 1
2001 1828 1827 1
2002 1827 1890 1
2003 1827 1891 1
2004 1829 1828 un
2005 1828 1834 un
2006 1830 1829 1
2007 1829 1831 un
2008 1830 1892 1
2009 1830 1893 1
2010 1832 1831 un
2011 1831 1879 1
2012 1833 1832 un
2013 1832 1880 1
2014 1834 1833 un
2015 1833 1838 un
2016 1834 1835 un
2017 1836 1835 un
2018 1835 1894 1
2019 1837 1836 un
2020 1836 1842 un
2021 1838 1837 un
2022 1837 1839 1
2023 1838 1881 1
2024 1840 1839 1
2025 1839 1846 1
2026 1841 1840 1
2027 1840 1843 1
2028 1842 1841 un
2029 1841 1850 un
2030 1842 1847 un
2031 1844 1843 1
2032 1843 1895 1
2033 1843 1896 1
2034 1845 1844 un
2035 1844 1883 1
2036 1844 1897 1
2037 1846 1845 1
2038 1845 1882 1
2039 1845 1898 1
2040 1846 1899 1
2041 1846 1900 1
2042 1848 1847 un
2043 1847 1885 1
2044 1849 1848 un
2045 1848 1854 1
2046 1850 1849 un
2047 1849 1851 1
2048 1850 1884 1
2049 1852 1851 1
2050 1851 1887 2
2051 1853 1852 un
2052 1852 1858 un
2053 1854 1853 1
2054 1853 1855 1
2055 1854 1886 2
2056 1856 1855 1
2057 1855 1901 1
2058 1855 1902 1
2059 1857 1856 1
2060 1856 1903 1
2061 1856 1904 1
2062 1858 1857 un
2063 1857 1862 un
2064 1858 1859 un
2065 1860 1859 un
2066 1861 1860 un
2067 1860 1869 un
2068 1862 1861 un
2069 1861 1866 1
2070 1862 1863 1
2071 1864 1863 1
2072 1863 1905 1
2073 1863 1906 1
2074 1865 1864 1
2075 1864 1907 1
2076 1864 1908 1
2077 1866 1865 1
2078 1865 1909 1
2079 1865 1910 1
2080 1866 1867 1
2081 1866 1911 1
2082 1868 1867 1
2083 1867 1912 1
2084 1867 1913 1
2085 1869 1868 un
2086 1868 1873 un
2087 1869 1870 un
2088 1871 1870 un
2089 1870 1914 1
2090 1872 1871 un
2091 1871 1915 1
2092 1873 1872 un
2093 1872 1889 1
2094 1873 1888 1
2095 1874 1875 1
2096 1874 1916 1
2097 1874 1917 1
2098 1875 1918 1
2099 1875 1919 1
2100 1875 1920 1
2101 1876 1921 1
2102 1876 1922 1
2103 1876 1923 1
2104 1877 1924 1
2105 1877 1925 1
2106 1877 1926 1
2107 1878 1927 1
2108 1878 1928 1
2109 1878 1929 1
2110 1879 1930 1
2111 1879 1931 1
2112 1879 1932 1
2113 1880 1933 1
2114 1880 1934 1
2115 1880 1935 1
2116 1881 1936 1
2117 1882 1937 1
2118 1882 1938 1
2119 1882 1939 1
2120 1883 1940 1
2121 1883 1941 1
2122 1883 1942 1
2123 1884 1943 1
2124 1885 1944 1
2125 1888 1945 1
2126 1888 1946 1
2127 1888 1947 1
2128 1889 1948 1
2129 1889 1949 1
2130 1889 1950 1
2131 1951 1952 un
2132 1951 1956 un
2133 1951 2006 1
2134 1953 1952 un
2135 1952 2008 1
2136 1954 1953 un
2137 1953 1960 1
2138 1955 1954 un
2139 1954 1957 1
2140 1956 1955 un
2141 1955 2007 1
2142 1956 2004 1
2143 1958 1957 1
2144 1957 2020 1
2145 1957 2021 1
2146 1959 1958 un
2147 1958 1964 un
2148 1960 1959 1
2149 1959 1961 un
2150 1960 2022 1
2151 1960 2023 1
2152 1962 1961 un
2153 1961 2009 1
2154 1963 1962 un
2155 1962 2010 1
2156 1964 1963 un
2157 1963 1968 un
2158 1964 1965 un
2159 1966 1965 un
2160 1965 2024 1
2161 1967 1966 un
2162 1966 1972 un
2163 1968 1967 un
2164 1967 1969 1
2165 1968 2011 1
2166 1970 1969 1
2167 1969 1976 1
2168 1971 1970 1
2169 1970 1973 1
2170 1972 1971 un
2171 1971 1980 un
2172 1972 1977 un
2173 1974 1973 1
2174 1973 2025 1
2175 1973 2026 1
2176 1975 1974 un
2177 1974 2013 1
2178 1974 2027 1
2179 1976 1975 1
2180 1975 2012 1
2181 1975 2028 1
2182 1976 2029 1
2183 1976 2030 1
2184 1978 1977 un
2185 1977 2015 1
2186 1979 1978 un
2187 1978 1984 1
2188 1980 1979 un
2189 1979 1981 1
2190 1980 2014 1
2191 1982 1981 1
2192 1981 2017 2
2193 1983 1982 un
2194 1982 1988 un
2195 1984 1983 1
2196 1983 1985 1
2197 1984 2016 2
2198 1986 1985 1
2199 1985 2031 1
2200 1985 2032 1
2201 1987 1986 1
2202 1986 2033 1
2203 1986 2034 1
2204 1988 1987 un
2205 1987 1992 un
2206 1988 1989 un
2207 1990 1989 un
2208 1991 1990 un
2209 1990 1999 un
2210 1992 1991 un
2211 1991 1996 1
2212 1992 1993 1
2213 1994 1993 1
2214 1993 2035 1
2215 1993 2036 1
2216 1995 1994 1
2217 1994 2037 1
2218 1994 2038 1
2219 1996 1995 1
2220 1995 2039 1
2221 1995 2040 1
2222 1996 1997 1
2223 1996 2041 1
2224 1998 1997 1
2225 1997 2042 1
2226 1997 2043 1
2227 1999 1998 un
2228 1998 2003 un
2229 1999 2000 un
2230 2001 2000 un
2231 2000 2044 1
2232 2002 2001 un
2233 2001 2045 1
2234 2003 2002 un
2235 2002 2019 1
2236 2003 2018 1
2237 2004 2005 1
2238 2004 2046 1
2239 2004 2047 1
2240 2005 2048 1
2241 2005 2049 1
2242 2005 2050 1
2243 2006 2051 1
2244 2006 2052 1
2245 2006 2053 1
2246 2007 2054 1
2247 2007 2055 1
2248 2007 2056 1
2249 2008 2057 1
2250 2008 2058 1
2251 2008 2059 1
2252 2009 2060 1
2253 2009 2061 1
2254 2009 2062 1
2255 2010 2063 1
2256 2010 2064 1
2257 2010 2065 1
2258 2011 2066 1
2259 2012 2067 1
2260 2012 2068 1
2261 2012 2069 1
2262 2013 2070 1
2263 2013 2071 1
2264 2013 2072 1
2265 2014 2073 1
2266 2015 2074 1
2267 2018 2075 1
2268 2018 2076 1
2269 2018 2077 1
2270 2019 2078 1
2271 2019 2079 1
2272 2019 2080 1
2273 2081 2082 un
2274 2081 2086 un
2275 2081 2136 1
2276 2083 2082 un
2277 2082 2138 1
2278 2084 2083 un
2279 2083 2090 1
2280 2085 2084 un
2281 2084 2087 1
2282 2086 2085 un
2283 2085 2137 1
2284 2086 2134 1
2285 2088 2087 1
2286 2087 2150 1
2287 2087 2151 1
2288 2089 2088 un
2289 2088 2094 un
2290 2090 2089 1
2291 2089 2091 un
2292 2090 2152 1
2293 2090 2153 1
2294 2092 2091 un
2295 2091 2139 1
2296 2093 2092 un
2297 2092 2140 1
2298 2094 2093 un
2299 2093 2098 un
2300 2094 2095 un
2301 2096 2095 un
2302 2095 2154 1
2303 2097 2096 un
2304 2096 2102 un
2305 2098 2097 un
2306 2097 2099 1
2307 2098 2141 1
2308 2100 2099 1
2309 2099 2106 1
2310 2101 2100 1
2311 2100 2103 1
2312 2102 2101 un
2313 2101 2110 un
2314 2102 2107 un
2315 2104 2103 1
2316 2103 2155 1
2317 2103 2156 1
2318 2105 2104 un
2319 2104 2143 1
2320 2104 2157 1
2321 2106 2105 1
2322 2105 2142 1
2323 2105 2158 1
2324 2106 2159 1
2325 2106 2160 1
2326 2108 2107 un
2327 2107 2145 1
2328 2109 2108 un
2329 2108 2114 1
2330 2110 2109 un
2331 2109 2111 1
2332 2110 2144 1
2333 2112 2111 1
2334 2111 2147 2
2335 2113 2112 un
2336 2112 2118 un
2337 2114 2113 1
2338 2113 2115 1
2339 2114 2146 2
2340 2116 2115 1
2341 2115 2161 1
2342 2115 2162 1
2343 2117 2116 1
2344 2116 2163 1
2345 2116 2164 1
2346 2118 2117 un
2347 2117 2122 un
2348 2118 2119 un
2349 2120 2119 un
2350 2121 2120 un
2351 2120 2129 un
2352 2122 2121 un
2353 2121 2126 1
2354 2122 2123 1
2355 2124 2123 1
2356 2123 2165 1
2357 2123 2166 1
2358 2125 2124 1
2359 2124 2167 1
2360 2124 2168 1
2361 2126 2125 1
2362 2125 2169 1
2363 2125 2170 1
2364 2126 2127 1
2365 2126 2171 1
2366 2128 2127 1
2367 2127 2172 1
2368 2127 2173 1
2369 2129 2128 un
2370 2128 2133 un
2371 2129 2130 un
2372 2131 2130 un
2373 2130 2174 1
2374 2132 2131 un
2375 2131 2175 1
2376 2133 2132 un
2377 2132 2149 1
2378 2133 2148 1
2379 2134 2135 1
2380 2134 2176 1
2381 2134 2177 1
2382 2135 2178 1
2383 2135 2179 1
2384 2135 2180 1
2385 2136 2181 1
2386 2136 2182 1
2387 2136 2183 1
2388 2137 2184 1
2389 2137 2185 1
2390 2137 2186 1
2391 2138 2187 1
2392 2138 2188 1
2393 2138 2189 1
2394 2139 2190 1
2395 2139 2191 1
2396 2139 2192 1
2397 2140 2193 1
2398 2140 2194 1
2399 2140 2195 1
2400 2141 2196 1
2401 2142 2197 1
2402 2142 2198 1
2403 2142 2199 1
2404 2143 2200 1
2405 2143 2201 1
2406 2143 2202 1
2407 2144 2203 1
2408 2145 2204 1
2409 2148 2205 1
2410 2148 2206 1
2411 2148 2207 1
2412 2149 2208 1
2413 2149 2209 1
2414 2149 2210 1
2415 2211 2212 un
2416 2211 2216 un
2417 2211 2266 1
2418 2213 2212 un
2419 2212 2268 1
2420 2214 2213 un
2421 2213 2220 1
2422 2215 2214 un
2423 2214 2217 1
2424 2216 2215 un
2425 2215 2267 1
2426 2216 2264 1
2427 2218 2217 1
2428 2217 2280 1
2429 2217 2281 1
2430 2219 2218 un
2431 2218 2224 un
2432 2220 2219 1
2433 2219 2221 un
2434 2220 2282 1
2435 2220 2283 1
2436 2222 2221 un
2437 2221 2269 1
2438 2223 2222 un
2439 2222 2270 1
2440 2224 2223 un
2441 2223 2228 un
2442 2224 2225 un
2443 2226 2225 un
2444 2225 2284 1
2445 2227 2226 un
2446 2226 2232 un
2447 2228 2227 un
2448 2227 2229 1
2449 2228 2271 1
2450 2230 2229 1
2451 2229 2236 1
2452 2231 2230 1
2453 2230 2233 1
2454 2232 2231 un
2455 2231 2240 un
2456 2232 2237 un
2457 2234 2233 1
2458 2233 2285 1
2459 2233 2286 1
2460 2235 2234 un
2461 2234 2273 1
2462 2234 2287 1
2463 2236 2235 1
2464 2235 2272 1
2465 2235 2288 1
2466 2236 2289 1
2467 2236 2290 1
2468 2238 2237 un
2469 2237 2275 1
2470 2239 2238 un
2471 2238 2244 1
2472 2240 2239 un
2473 2239 2241 1
2474 2240 2274 1
2475 2242 2241 1
2476 2241 2277 2
2477 2243 2242 un
2478 2242 2248 un
2479 2244 2243 1
2480 2243 2245 1
2481 2244 2276 2
2482 2246 2245 1
2483 2245 2291 1
2484 2245 2292 1
2485 2247 2246 1
2486 2246 2293 1
2487 2246 2294 1
2488 2248 2247 un
2489 2247 2252 un
2490 2248 2249 un
2491 2250 2249 un
2492 2251 2250 un
2493 2250 2259 un
2494 2252 2251 un
2495 2251 2256 1
2496 2252 2253 1
2497 2254 2253 1
2498 2253 2295 1
2499 2253 2296 1
2500 2255 2254 1
2501 2254 2297 1
2502 2254 2298 1
2503 2256 2255 1
2504 2255 2299 1
2505 2255 2300 1
2506 2256 2257 1
2507 2256 2301 1
2508 2258 2257 1
2509 2257 2302 1
2510 2257 2303 1
2511 2259 2258 un
2512 2258 2263 un
2513 2259 2260 un
2514 2261 2260 un
2515 2260 2304 1
2516 2262 2261 un
2517 2261 2305 1
2518 2263 2262 un
2519 2262 2279 1
2520 2263 2278 1
2521 2264 2265 1
2522 2264 2306 1
2523 2264 2307 1
2524 2265 2308 1
2525 2265 2309 1
2526 2265 2310 1
2527 2266 2311 1
2528 2266 2312 1
2529 2266 2313 1
2530 2267 2314 1
2531 2267 2315 1
2532 2267 2316 1
2533 2268 2317 1
2534 2268 2318 1
2535 2268 2319 1
2536 2269 2320 1
2537 2269 2321 1
2538 2269 2322 1
2539 2270 2323 1
2540 2270 2324 1
2541 2270 2325 1
2542 2271 2326 1
2543 2272 2327 1
2544 2272 2328 1
2545 2272 2329 1
2546 2273 2330 1
2547 2273 2331 1
2548 2273 2332 1
2549 2274 2333 1
2550 2275 2334 1
2551 2278 2335 1
2552 2278 2336 1
2553 2278 2337 1
2554 2279 2338 1
2555 2279 2339 1
2556 2279 2340 1
2557 2341 2342 un
2558 2341 2346 un
2559 2341 2396 1
2560 2343 2342 un
2561 2342 2398 1
2562 2344 2343 un
2563 2343 2350 1
2564 2345 2344 un
2565 2344 2347 1
2566 2346 2345 un
2567 2345 2397 1
2568 2346 2394 1
2569 2348 2347 1
2570 2347 2410 1
2571 2347 2411 1
2572 2349 2348 un
2573 2348 2354 un
2574 2350 2349 1
2575 2349 2351 un
2576 2350 2412 1
2577 2350 2413 1
2578 2352 2351 un
2579 2351 2399 1
2580 2353 2352 un
2581 2352 2400 1
2582 2354 2353 un
2583 2353 2358 un
2584 2354 2355 un
2585 2356 2355 un
2586 2355 2414 1
2587 2357 2356 un
2588 2356 2362 un
2589 2358 2357 un
2590 2357 2359 1
2591 2358 2401 1
2592 2360 2359 1
2593 2359 2366 1
2594 2361 2360 1
2595 2360 2363 1
2596 2362 2361 un
2597 2361 2370 un
2598 2362 2367 un
2599 2364 2363 1
2600 2363 2415 1
2601 2363 2416 1
2602 2365 2364 un
2603 2364 2403 1
2604 2364 2417 1
2605 2366 2365 1
2606 2365 2402 1
2607 2365 2418 1
2608 2366 2419 1
2609 2366 2420 1
2610 2368 2367 un
2611 2367 2405 1
2612 2369 2368 un
2613 2368 2374 1
2614 2370 2369 un
2615 2369 2371 1
2616 2370 2404 1
2617 2372 2371 1
2618 2371 2407 2
2619 2373 2372 un
2620 2372 2378 un
2621 2374 2373 1
2622 2373 2375 1
2623 2374 2406 2
2624 2376 2375 1
2625 2375 2421 1
2626 2375 2422 1
2627 2377 2376 1
2628 2376 2423 1
2629 2376 2424 1
2630 2378 2377 un
2631 2377 2382 un
2632 2378 2379 un
2633 2380 2379 un
2634 2381 2380 un
2635 2380 2389 un
2636 2382 2381 un
2637 2381 2386 1
2638 2382 2383 1
2639 2384 2383 1
2640 2383 2425 1
2641 2383 2426 1
2642 2385 2384 1
2643 2384 2427 1
2644 2384 2428 1
2645 2386 2385 1
2646 2385 2429 1
2647 2385 2430 1
2648 2386 2387 1
2649 2386 2431 1
2650 2388 2387 1
2651 2387 2432 1
2652 2387 2433 1
2653 2389 2388 un
2654 2388 2393 un
2655 2389 2390 un
2656 2391 2390 un
2657 2390 2434 1
2658 2392 2391 un
2659 2391 2435 1
2660 2393 2392 un
2661 2392 2409 1
2662 2393 2408 1
2663 2394 2395 1
2664 2394 2436 1
2665 2394 2437 1
2666 2395 2438 1
2667 2395 2439 1
2668 2395 2440 1
2669 2396 2441 1
2670 2396 2442 1
2671 2396 2443 1
2672 2397 2444 1
2673 2397 2445 1
2674 2397 2446 1
2675 2398 2447 1
2676 2398 2448 1
2677 2398 2449 1
2678 2399 2450 1
2679 2399 2451 1
2680 2399 2452 1
2681 2400 2453 1
2682 2400 2454 1
2683 2400 2455 1
2684 2401 2456 1
2685 2402 2457 1
2686 2402 2458 1
2687 2402 2459 1
2688 2403 2460 1
2689 2403 2461 1
2690 2403 2462 1
2691 2404 2463 1
2692 2405 2464 1
2693 2408 2465 1
2694 2408 2466 1
2695 2408 2467 1
2696 2409 2468 1
2697 2409 2469 1
2698 2409 2470 1
2699 2471 2472 un
2700 2471 2476 un
2701 2471 2526 1
2702 2473 2472 un
2703 2472 2528 1
2704 2474 2473 un
2705 2473 2480 1
2706 2475 2474 un
2707 2474 2477 1
2708 2476 2475 un
2709 2475 2527 1
2710 2476 2524 1
2711 2478 2477 1
2712 2477 2540 1
2713 2477 2541 1
2714 2479 2478 un
2715 2478 2484 un
2716 2480 2479 1
2717 2479 2481 un
2718 2480 2542 1
2719 2480 2543 1
2720 2482 2481 un
2721 2481 2529 1
2722 2483 2482 un
2723 2482 2530 1
2724 2484 2483 un
2725 2483 2488 un
2726 2484 2485 un
2727 2486 2485 un
2728 2485 2544 1
2729 2487 2486 un
2730 2486 2492 un
2731 2488 2487 un
2732 2487 2489 1
2733 2488 2531 1
2734 2490 2489 1
2735 2489 2496 1
2736 2491 2490 1
2737 2490 2493 1
2738 2492 2491 un
2739 2491 2500 un
2740 2492 2497 un
2741 2494 2493 1
2742 2493 2545 1
2743 2493 2546 1
2744 2495 2494 un
2745 2494 2533 1
2746 2494 2547 1
2747 2496 2495 1
2748 2495 2532 1
2749 2495 2548 1
2750 2496 2549 1
2751 2496 2550 1
2752 2498 2497 un
2753 2497 2535 1
2754 2499 2498 un
2755 2498 2504 1
2756 2500 2499 un
2757 2499 2501 1
2758 2500 2534 1
2759 2502 2501 1
2760 2501 2537 2
2761 2503 2502 un
2762 2502 2508 un
2763 2504 2503 1
2764 2503 2505 1
2765 2504 2536 2
2766 2506 2505 1
2767 2505 2551 1
2768 2505 2552 1
2769 2507 2506 1
2770 2506 2553 1
2771 2506 2554 1
2772 2508 2507 un
2773 2507 2512 un
2774 2508 2509 un
2775 2510 2509 un
2776 2511 2510 un
2777 2510 2519 un
2778 2512 2511 un
2779 2511 2516 1
2780 2512 2513 1
2781 2514 2513 1
2782 2513 2555 1
2783 2513 2556 1
2784 2515 2514 1
2785 2514 2557 1
2786 2514 2558 1
2787 2516 2515 1
2788 2515 2559 1
2789 2515 2560 1
2790 2516 2517 1
2791 2516 2561 1
2792 2518 2517 1
2793 2517 2562 1
2794 2517 2563 1
2795 2519 2518 un
2796 2518 2523 un
2797 2519 2520 un
2798 2521 2520 un
2799 2520 2564 1
2800 2522 2521 un
2801 2521 2565 1
2802 2523 2522 un
2803 2522 2539 1
2804 2523 2538 1
2805 2524 2525 1
2806 2524 2566 1
2807 2524 2567 1
2808 2525 2568 1
2809 2525 2569 1
2810 2525 2570 1
2811 2526 2571 1
2812 2526 2572 1
2813 2526 2573 1
2814 2527 2574 1
2815 2527 2575 1
2816 2527 2576 1
2817 2528 2577 1
2818 2528 2578 1
2819 2528 2579 1
2820 2529 2580 1
2821 2529 2581 1
2822 2529 2582 1
2823 2530 2583 1
2824 2530 2584 1
2825 2530 2585 1
2826 2531 2586 1
2827 2532 2587 1
2828 2532 2588 1
2829 2532 2589 1
2830 2533 2590 1
2831 2533 2591 1
2832 2533 2592 1
2833 2534 2593 1
2834 2535 2594 1
2835 2538 2595 1
2836 2538 2596 1
2837 2538 2597 1
2838 2539 2598 1
2839 2539 2599 1
2840 2539 2600 1
2841 2601 2602 am
2842 2606 2601 am
2843 2601 2653 1
2844 2602 2603 am
2845 2602 2661 1
2846 2603 2604 am
2847 2603 2609 1
2848 2604 2605 am
2849 2604 2607 1
2850 2605 2606 am
2851 2605 2662 1
2852 2606 2654 1
2853 2607 2608 am
2854 2607 2613 am
2855 2608 2609 1
2856 2608 2610 am
2857 2609 2663 1
2858 2609 2664 1
2859 2610 2611 am
2860 2610 2623 am
2861 2611 2612 am
2862 2611 2620 am
2863 2612 2613 am
2864 2612 2617 1
2865 2613 2614 1
2866 2614 2615 1
2867 2614 2665 1
2868 2614 2666 1
2869 2615 2616 1
2870 2615 2667 1
2871 2615 2668 1
2872 2616 2617 1
2873 2616 2669 1
2874 2616 2670 1
2875 2617 2618 am
2876 2618 2619 am
2877 2618 2627 1
2878 2619 2620 am
2879 2619 2624 1
2880 2620 2621 am
2881 2621 2622 am
2882 2621 2641 am
2883 2622 2623 am
2884 2622 2639 1
2885 2623 2655 1
2886 2624 2625 1
2887 2624 2671 1
2888 2624 2700 1
2889 2625 2626 am
2890 2625 2631 am
2891 2626 2627 1
2892 2626 2628 am
2893 2627 2672 1
2894 2627 2701 1
2895 2628 2629 am
2896 2628 2659 1
2897 2629 2630 am
2898 2629 2635 1
2899 2630 2631 am
2900 2630 2632 1
2901 2631 2636 am
2902 2632 2633 1
2903 2632 2638 am
2904 2633 2634 1
2905 2633 2673 1
2906 2633 2674 1
2907 2634 2635 1
2908 2634 2675 1
2909 2634 2676 1
2910 2635 2677 1
2911 2635 2678 1
2912 2636 2637 am
2913 2636 2679 1
2914 2637 2638 am
2915 2637 2658 1
2916 2638 2680 1
2917 2639 2640 1
2918 2639 2681 1
2919 2639 2682 1
2920 2640 2641 am
2921 2640 2645 am
2922 2641 2642 am
2923 2642 2643 am
2924 2642 2683 1
2925 2643 2644 am
2926 2643 2652 am
2927 2644 2645 am
2928 2644 2649 am
2929 2645 2646 am
2930 2646 2647 am
2931 2646 2684 1
2932 2647 2648 am
2933 2647 2656 1
2934 2648 2649 am
2935 2648 2685 1
2936 2649 2650 am
2937 2650 2651 am
2938 2650 2660 1
2939 2651 2652 am
2940 2651 2686 1
2941 2652 2687 1
2942 2653 2688 1
2943 2654 2689 1
2944 2654 2690 1
2945 2654 2691 1
2946 2655 2692 1
2947 2656 2657 1
2948 2656 2693 1
2949 2656 2702 1
2950 2657 2694 1
2951 2657 2695 1
2952 2657 2696 1
2953 2658 2697 1
2954 2659 2698 1
2955 2660 2699 1
2956 2703 2704 am
2957 2708 2703 am
2958 2703 2755 1
2959 2704 2705 am
2960 2704 2763 1
2961 2705 2706 am
2962 2705 2711 1
2963 2706 2707 am
2964 2706 2709 1
2965 2707 2708 am
2966 2707 2764 1
2967 2708 2756 1
2968 2709 2710 am
2969 2709 2715 am
2970 2710 2711 1
2971 2710 2712 am
2972 2711 2765 1
2973 2711 2766 1
2974 2712 2713 am
2975 2712 2725 am
2976 2713 2714 am
2977 2713 2722 am
2978 2714 2715 am
2979 2714 2719 1
2980 2715 2716 1
2981 2716 2717 1
2982 2716 2767 1
2983 2716 2768 1
2984 2717 2718 1
2985 2717 2769 1
2986 2717 2770 1
2987 2718 2719 1
2988 2718 2771 1
2989 2718 2772 1
2990 2719 2720 am
2991 2720 2721 am
2992 2720 2729 1
2993 2721 2722 am
2994 2721 2726 1
2995 2722 2723 am
2996 2723 2724 am
2997 2723 2743 am
2998 2724 2725 am
2999 2724 2741 1
3000 2725 2757 1
3001 2726 2727 1
3002 2726 2773 1
3003 2726 2802 1
3004 2727 2728 am
3005 2727 2733 am
3006 2728 2729 1
3007 2728 2730 am
3008 2729 2774 1
3009 2729 2803 1
3010 2730 2731 am
3011 2730 2761 1
3012 2731 2732 am
3013 2731 2737 1
3014 2732 2733 am
3015 2732 2734 1
3016 2733 2738 am
3017 2734 2735 1
3018 2734 2740 am
3019 2735 2736 1
3020 2735 2775 1
3021 2735 2776 1
3022 2736 2737 1
3023 2736 2777 1
3024 2736 2778 1
3025 2737 2779 1
3026 2737 2780 1
3027 2738 2739 am
3028 2738 2781 1
3029 2739 2740 am
3030 2739 2760 1
3031 2740 2782 1
3032 2741 2742 1
3033 2741 2783 1
3034 2741 2784 1
3035 2742 2743 am
3036 2742 2747 am
3037 2743 2744 am
3038 2744 2745 am
3039 2744 2785 1
3040 2745 2746 am
3041 2745 2754 am
3042 2746 2747 am
3043 2746 2751 am
3044 2747 2748 am
3045 2748 2749 am
3046 2748 2786 1
3047 2749 2750 am
3048 2749 2758 1
3049 2750 2751 am
3050 2750 2787 1
3051 2751 2752 am
3052 2752 2753 am
3053 2752 2762 1
3054 2753 2754 am
3055 2753 2788 1
3056 2754 2789 1
3057 2755 2790 1
3058 2756 2791 1
3059 2756 2792 1
3060 2756 2793 1
3061 2757 2794 1
3062 2758 2759 1
3063 2758 2795 1
3064 2758 2804 1
3065 2759 2796 1
3066 2759 2797 1
3067 2759 2798 1
3068 2760 2799 1
3069 2761 2800 1
3070 2762 2801 1
3071 2805 2806 am
3072 2810 2805 am
3073 2805 2857 1
3074 2806 2807 am
3075 2806 2865 1
3076 2807 2808 am
3077 2807 2813 1
3078 2808 2809 am
3079 2808 2811 1
3080 2809 2810 am
3081 2809 2866 1
3082 2810 2858 1
3083 2811 2812 am
3084 2811 2817 am
3085 2812 2813 1
3086 2812 2814 am
3087 2813 2867 1
3088 2813 2868 1
3089 2814 2815 am
3090 2814 2827 am
3091 2815 2816 am
3092 2815 2824 am
3093 2816 2817 am
3094 2816 2821 1
3095 2817 2818 1
3096 2818 2819 1
3097 2818 2869 1
3098 2818 2870 1
3099 2819 2820 1
3100 2819 2871 1
3101 2819 2872 1
3102 2820 2821 1
3103 2820 2873 1
3104 2820 2874 1
3105 2821 2822 am
3106 2822 2823 am
3107 2822 2831 1
3108 2823 2824 am
3109 2823 2828 1
3110 2824 2825 am
3111 2825 2826 am
3112 2825 2845 am
3113 2826 2827 am
3114 2826 2843 1
3115 2827 2859 1
3116 2828 2829 1
3117 2828 2875 1
3118 2828 2904 1
3119 2829 2830 am
3120 2829 2835 am
3121 2830 2831 1
3122 2830 2832 am
3123 2831 2876 1
3124 2831 2905 1
3125 2832 2833 am
3126 2832 2863 1
3127 2833 2834 am
3128 2833 2839 1
3129 2834 2835 am
3130 2834 2836 1
3131 2835 2840 am
3132 2836 2837 1
3133 2836 2842 am
3134 2837 2838 1
3135 2837 2877 1
3136 2837 2878 1
3137 2838 2839 1
3138 2838 2879 1
3139 2838 2880 1
3140 2839 2881 1
3141 2839 2882 1
3142 2840 2841 am
3143 2840 2883 1
3144 2841 2842 am
3145 2841 2862 1
3146 2842 2884 1
3147 2843 2844 1
3148 2843 2885 1
3149 2843 2886 1
3150 2844 2845 am
3151 2844 2849 am
3152 2845 2846 am
3153 2846 2847 am
3154 2846 2887 1
3155 2847 2848 am
3156 2847 2856 am
3157 2848 2849 am
3158 2848 2853 am
3159 2849 2850 am
3160 2850 2851 am
3161 2850 2888 1
3162 2851 2852 am
3163 2851 2860 1
3164 2852 2853 am
3165 2852 2889 1
3166 2853 2854 am
3167 2854 2855 am
3168 2854 2864 1
3169 2855 2856 am
3170 2855 2890 1
3171 2856 2891 1
3172 2857 2892 1
3173 2858 2893 1
3174 2858 2894 1
3175 2858 2895 1
3176 2859 2896 1
3177 2860 2861 1
3178 2860 2897 1
3179 2860 2906 1
3180 2861 2898 1
3181 2861 2899 1
3182 2861 2900 1
3183 2862 2901 1
3184 2863 2902 1
3185 2864 2903 1
3186 2907 2908 am
3187 2912 2907 am
3188 2907 2959 1
3189 2908 2909 am
3190 2908 2967 1
3191 2909 2910 am
3192 2909 2915 1
3193 2910 2911 am
3194 2910 2913 1
3195 2911 2912 am
3196 2911 2968 1
3197 2912 2960 1
3198 2913 2914 am
3199 2913 2919 am
3200 2914 2915 1
3201 2914 2916 am
3202 2915 2969 1
3203 2915 2970 1
3204 2916 2917 am
3205 2916 2929 am
3206 2917 2918 am
3207 2917 2926 am
3208 2918 2919 am
3209 2918 2923 1
3210 2919 2920 1
3211 2920 2921 1
3212 2920 2971 1
3213 2920 2972 1
3214 2921 2922 1
3215 2921 2973 1
3216 2921 2974 1
3217 2922 2923 1
3218 2922 2975 1
3219 2922 2976 1
3220 2923 2924 am
3221 2924 2925 am
3222 2924 2933 1
3223 2925 2926 am
3224 2925 2930 1
3225 2926 2927 am
3226 2927 2928 am
3227 2927 2947 am
3228 2928 2929 am
3229 2928 2945 1
3230 2929 2961 1
3231 2930 2931 1
3232 2930 2977 1
3233 2930 3006 1
3234 2931 2932 am
3235 2931 2937 am
3236 2932 2933 1
3237 2932 2934 am
3238 2933 2978 1
3239 2933 3007 1
3240 2934 2935 am
3241 2934 2965 1
3242 2935 2936 am
3243 2935 2941 1
3244 2936 2937 am
3245 2936 2938 1
3246 2937 2942 am
3247 2938 2939 1
3248 2938 2944 am
3249 2939 2940 1
3250 2939 2979 1
3251 2939 2980 1
3252 2940 2941 1
3253 2940 2981 1
3254 2940 2982 1
3255 2941 2983 1
3256 2941 2984 1
3257 2942 2943 am
3258 2942 2985 1
3259 2943 2944 am
3260 2943 2964 1
3261 2944 2986 1
3262 2945 2946 1
3263 2945 2987 1
3264 2945 2988 1
3265 2946 2947 am
3266 2946 2951 am
3267 2947 2948 am
3268 2948 2949 am
3269 2948 2989 1
3270 2949 2950 am
3271 2949 2958 am
3272 2950 2951 am
3273 2950 2955 am
3274 2951 2952 am
3275 2952 2953 am
3276 2952 2990 1
3277 2953 2954 am
3278 2953 2962 1
3279 2954 2955 am
3280 2954 2991 1
3281 2955 2956 am
3282 2956 2957 am
3283 2956 2966 1
3284 2957 2958 am
3285 2957 2992 1
3286 2958 2993 1
3287 2959 2994 1
3288 2960 2995 1
3289 2960 2996 1
3290 2960 2997 1
3291 2961 2998 1
3292 2962 2963 1
3293 2962 2999 1
3294 2962 3008 1
3295 2963 3000 1
3296 2963 3001 1
3297 2963 3002 1
3298 2964 3003 1
3299 2965 3004 1
3300 2966 3005 1
3301 3009 3010 am
3302 3014 3009 am
3303 3009 3061 1
3304 3010 3011 am
3305 3010 3069 1
3306 3011 3012 am
3307 3011 3017 1
3308 3012 3013 am
3309 3012 3015 1
3310 3013 3014 am
3311 3013 3070 1
3312 3014 3062 1
3313 3015 3016 am
3314 3015 3021 am
3315 3016 3017 1
3316 3016 3018 am
3317 3017 3071 1
3318 3017 3072 1
3319 3018 3019 am
3320 3018 3031 am
3321 3019 3020 am
3322 3019 3028 am
3323 3020 3021 am
3324 3020 3025 1
3325 3021 3022 1
3326 3022 3023 1
3327 3022 3073 1
3328 3022 3074 1
3329 3023 3024 1
3330 3023 3075 1
3331 3023 3076 1
3332 3024 3025 1
3333 3024 3077 1
3334 3024 3078 1
3335 3025 3026 am
3336 3026 3027 am
3337 3026 3035 1
3338 3027 3028 am
3339 3027 3032 1
3340 3028 3029 am
3341 3029 3030 am
3342 3029 3049 am
3343 3030 3031 am
3344 3030 3047 1
3345 3031 3063 1
3346 3032 3033 1
3347 3032 3079 1
3348 3032 3108 1
3349 3033 3034 am
3350 3033 3039 am
3351 3034 3035 1
3352 3034 3036 am
3353 3035 3080 1
3354 3035 3109 1
3355 3036 3037 am
3356 3036 3067 1
3357 3037 3038 am
3358 3037 3043 1
3359 3038 3039 am
3360 3038 3040 1
3361 3039 3044 am
3362 3040 3041 1
3363 3040 3046 am
3364 3041 3042 1
3365 3041 3081 1
3366 3041 3082 1
3367 3042 3043 1
3368 3042 3083 1
3369 3042 3084 1
3370 3043 3085 1
3371 3043 3086 1
3372 3044 3045 am
3373 3044 3087 1
3374 3045 3046 am
3375 3045 3066 1
3376 3046 3088 1
3377 3047 3048 1
3378 3047 3089 1
3379 3047 3090 1
3380 3048 3049 am
3381 3048 3053 am
3382 3049 3050 am
3383 3050 3051 am
3384 3050 3091 1
3385 3051 3052 am
3386 3051 3060 am
3387 3052 3053 am
3388 3052 3057 am
3389 3053 3054 am
3390 3054 3055 am
3391 3054 3092 1
3392 3055 3056 am
3393 3055 3064 1
3394 3056 3057 am
3395 3056 3093 1
3396 3057 3058 am
3397 3058 3059 am
3398 3058 3068 1
3399 3059 3060 am
3400 3059 3094 1
3401 3060 3095 1
3402 3061 3096 1
3403 3062 3097 1
3404 3062 3098 1
3405 3062 3099 1
3406 3063 3100 1
3407 3064 3065 1
3408 3064 3101 1
3409 3064 3110 1
3410 3065 3102 1
3411 3065 3103 1
3412 3065 3104 1
3413 3066 3105 1
3414 3067 3106 1
3415 3068 3107 1
3416 3111 3112 am
3417 3116 3111 am
3418 3111 3163 1
3419 3112 3113 am
3420 3112 3171 1
3421 3113 3114 am
3422 3113 3119 1
3423 3114 3115 am
3424 3114 3117 1
3425 3115 3116 am
3426 3115 3172 1
3427 3116 3164 1
3428 3117 3118 am
3429 3117 3123 am
3430 3118 3119 1
3431 3118 3120 am
3432 3119 3173 1
3433 3119 3174 1
3434 3120 3121 am
3435 3120 3133 am
3436 3121 3122 am
3437 3121 3130 am
3438 3122 3123 am
3439 3122 3127 1
3440 3123 3124 1
3441 3124 3125 1
3442 3124 3175 1
3443 3124 3176 1
3444 3125 3126 1
3445 3125 3177 1
3446 3125 3178 1
3447 3126 3127 1
3448 3126 3179 1
3449 3126 3180 1
3450 3127 3128 am
3451 3128 3129 am
3452 3128 3137 1
3453 3129 3130 am
3454 3129 3134 1
3455 3130 3131 am
3456 3131 3132 am
3457 3131 3151 am
3458 3132 3133 am
3459 3132 3149 1
3460 3133 3165 1
3461 3134 3135 1
3462 3134 3181 1
3463 3134 3210 1
3464 3135 3136 am
3465 3135 3141 am
3466 3136 3137 1
3467 3136 3138 am
3468 3137 3182 1
3469 3137 3211 1
3470 3138 3139 am
3471 3138 3169 1
3472 3139 3140 am
3473 3139 3145 1
3474 3140 3141 am
3475 3140 3142 1
3476 3141 3146 am
3477 3142 3143 1
3478 3142 3148 am
3479 3143 3144 1
3480 3143 3183 1
3481 3143 3184 1
3482 3144 3145 1
3483 3144 3185 1
3484 3144 3186 1
3485 3145 3187 1
3486 3145 3188 1
3487 3146 3147 am
3488 3146 3189 1
3489 3147 3148 am
3490 3147 3168 1
3491 3148 3190 1
3492 3149 3150 1
3493 3149 3191 1
3494 3149 3192 1
3495 3150 3151 am
3496 3150 3155 am
3497 3151 3152 am
3498 3152 3153 am
3499 3152 3193 1
3500 3153 3154 am
3501 3153 3162 am
3502 3154 3155 am
3503 3154 3159 am
3504 3155 3156 am
3505 3156 3157 am
3506 3156 3194 1
3507 3157 3158 am
3508 3157 3166 1
3509 3158 3159 am
3510 3158 3195 1
3511 3159 3160 am
3512 3160 3161 am
3513 3160 3170 1
3514 3161 3162 am
3515 3161 3196 1
3516 3162 3197 1
3517 3163 3198 1
3518 3164 3199 1
3519 3164 3200 1
3520 3164 3201 1
3521 3165 3202 1
3522 3166 3167 1
3523 3166 3203 1
3524 3166 3212 1
3525 3167 3204 1
3526 3167 3205 1
3527 3167 3206 1
3528 3168 3207 1
3529 3169 3208 1
3530 3170 3209 1
3531 3213 3214 am
3532 3218 3213 am
3533 3213 3265 1
3534 3214 3215 am
3535 3214 3273 1
3536 3215 3216 am
3537 3215 3221 1
3538 3216 3217 am
3539 3216 3219 1
3540 3217 3218 am
3541 3217 3274 1
3542 3218 3266 1
3543 3219 3220 am
3544 3219 3225 am
3545 3220 3221 1
3546 3220 3222 am
3547 3221 3275 1
3548 3221 3276 1
3549 3222 3223 am
3550 3222 3235 am
3551 3223 3224 am
3552 3223 3232 am
3553 3224 3225 am
3554 3224 3229 1
3555 3225 3226 1
3556 3226 3227 1
3557 3226 3277 1
3558 3226 3278 1
3559 3227 3228 1
3560 3227 3279 1
3561 3227 3280 1
3562 3228 3229 1
3563 3228 3281 1
3564 3228 3282 1
3565 3229 3230 am
3566 3230 3231 am
3567 3230 3239 1
3568 3231 3232 am
3569 3231 3236 1
3570 3232 3233 am
3571 3233 3234 am
3572 3233 3253 am
3573 3234 3235 am
3574 3234 3251 1
3575 3235 3267 1
3576 3236 3237 1
3577 3236 3283 1
3578 3236 3312 1
3579 3237 3238 am
3580 3237 3243 am
3581 3238 3239 1
3582 3238 3240 am
3583 3239 3284 1
3584 3239 3313 1
3585 3240 3241 am
3586 3240 3271 1
3587 3241 3242 am
3588 3241 3247 1
3589 3242 3243 am
3590 3242 3244 1
3591 3243 3248 am
3592 3244 3245 1
3593 3244 3250 am
3594 3245 3246 1
3595 3245 3285 1
3596 3245 3286 1
3597 3246 3247 1
3598 3246 3287 1
3599 3246 3288 1
3600 3247 3289 1
3601 3247 3290 1
3602 3248 3249 am
3603 3248 3291 1
3604 3249 3250 am
3605 3249 3270 1
3606 3250 3292 1
3607 3251 3252 1
3608 3251 3293 1
3609 3251 3294 1
3610 3252 3253 am
3611 3252 3257 am
3612 3253 3254 am
3613 3254 3255 am
3614 3254 3295 1
3615 3255 3256 am
3616 3255 3264 am
3617 3256 3257 am
3618 3256 3261 am
3619 3257 3258 am
3620 3258 3259 am
3621 3258 3296 1
3622 3259 3260 am
3623 3259 3268 1
3624 3260 3261 am
3625 3260 3297 1
3626 3261 3262 am
3627 3262 3263 am
3628 3262 3272 1
3629 3263 3264 am
3630 3263 3298 1
3631 3264 3299 1
3632 3265 3300 1
3633 3266 3301 1
3634 3266 3302 1
3635 3266 3303 1
3636 3267 3304 1
3637 3268 3269 1
3638 3268 3305 1
3639 3268 3314 1
3640 3269 3306 1
3641 3269 3307 1
3642 3269 3308 1
3643 3270 3309 1
3644 3271 3310 1
3645 3272 3311 1
3646 3315 3316 am
3647 3320 3315 am
3648 3315 3367 1
3649 3316 3317 am
3650 3316 3375 1
3651 3317 3318 am
3652 3317 3323 1
3653 3318 3319 am
3654 3318 3321 1
3655 3319 3320 am
3656 3319 3376 1
3657 3320 3368 1
3658 3321 3322 am
3659 3321 3327 am
3660 3322 3323 1
3661 3322 3324 am
3662 3323 3377 1
3663 3323 3378 1
3664 3324 3325 am
3665 3324 3337 am
3666 3325 3326 am
3667 3325 3334 am
3668 3326 3327 am
3669 3326 3331 1
3670 3327 3328 1
3671 3328 3329 1
3672 3328 3379 1
3673 3328 3380 1
3674 3329 3330 1
3675 3329 3381 1
3676 3329 3382 1
3677 3330 3331 1
3678 3330 3383 1
3679 3330 3384 1
3680 3331 3332 am
3681 3332 3333 am
3682 3332 3341 1
3683 3333 3334 am
3684 3333 3338 1
3685 3334 3335 am
3686 3335 3336 am
3687 3335 3355 am
3688 3336 3337 am
3689 3336 3353 1
3690 3337 3369 1
3691 3338 3339 1
3692 3338 3385 1
3693 3338 3414 1
3694 3339 3340 am
3695 3339 3345 am
3696 3340 3341 1
3697 3340 3342 am
3698 3341 3386 1
3699 3341 3415 1
3700 3342 3343 am
3701 3342 3373 1
3702 3343 3344 am
3703 3343 3349 1
3704 3344 3345 am
3705 3344 3346 1
3706 3345 3350 am
3707 3346 3347 1
3708 3346 3352 am
3709 3347 3348 1
3710 3347 3387 1
3711 3347 3388 1
3712 3348 3349 1
3713 3348 3389 1
3714 3348 3390 1
3715 3349 3391 1
3716 3349 3392 1
3717 3350 3351 am
3718 3350 3393 1
3719 3351 3352 am
3720 3351 3372 1
3721 3352 3394 1
3722 3353 3354 1
3723 3353 3395 1
3724 3353 3396 1
3725 3354 3355 am
3726 3354 3359 am
3727 3355 3356 am
3728 3356 3357 am
3729 3356 3397 1
3730 3357 3358 am
3731 3357 3366 am
3732 3358 3359 am
3733 3358 3363 am
3734 3359 3360 am
3735 3360 3361 am
3736 3360 3398 1
3737 3361 3362 am
3738 3361 3370 1
3739 3362 3363 am
3740 3362 3399 1
3741 3363 3364 am
3742 3364 3365 am
3743 3364 3374 1
3744 3365 3366 am
3745 3365 3400 1
3746 3366 3401 1
3747 3367 3402 1
3748 3368 3403 1
3749 3368 3404 1
3750 3368 3405 1
3751 3369 3406 1
3752 3370 3371 1
3753 3370 3407 1
3754 3370 3416 1
3755 3371 3408 1
3756 3371 3409 1
3757 3371 3410 1
3758 3372 3411 1
3759 3373 3412 1
3760 3374 3413 1
3761 3417 3418 am
3762 3422 3417 am
3763 3417 3469 1
3764 3418 3419 am
3765 3418 3477 1
3766 3419 3420 am
3767 3419 3425 1
3768 3420 3421 am
3769 3420 3423 1
3770 3421 3422 am
3771 3421 3478 1
3772 3422 3470 1
3773 3423 3424 am
3774 3423 3429 am
3775 3424 3425 1
3776 3424 3426 am
3777 3425 3479 1
3778 3425 3480 1
3779 3426 3427 am
3780 3426 3439 am
3781 3427 3428 am
3782 3427 3436 am
3783 3428 3429 am
3784 3428 3433 1
3785 3429 3430 1
3786 3430 3431 1
3787 3430 3481 1
3788 3430 3482 1
3789 3431 3432 1
3790 3431 3483 1
3791 3431 3484 1
3792 3432 3433 1
3793 3432 3485 1
3794 3432 3486 1
3795 3433 3434 am
3796 3434 3435 am
3797 3434 3443 1
3798 3435 3436 am
3799 3435 3440 1
3800 3436 3437 am
3801 3437 3438 am
3802 3437 3457 am
3803 3438 3439 am
3804 3438 3455 1
3805 3439 3471 1
3806 3440 3441 1
3807 3440 3487 1
3808 3440 3516 1
3809 3441 3442 am
3810 3441 3447 am
3811 3442 3443 1
3812 3442 3444 am
3813 3443 3488 1
3814 3443 3517 1
3815 3444 3445 am
3816 3444 3475 1
3817 3445 3446 am
3818 3445 3451 1
3819 3446 3447 am
3820 3446 3448 1
3821 3447 3452 am
3822 3448 3449 1
3823 3448 3454 am
3824 3449 3450 1
3825 3449 3489 1
3826 3449 3490 1
3827 3450 3451 1
3828 3450 3491 1
3829 3450 3492 1
3830 3451 3493 1
3831 3451 3494 1
3832 3452 3453 am
3833 3452 3495 1
3834 3453 3454 am
3835 3453 3474 1
3836 3454 3496 1
3837 3455 3456 1
3838 3455 3497 1
3839 3455 3498 1
3840 3456 3457 am
3841 3456 3461 am
3842 3457 3458 am
3843 3458 3459 am
3844 3458 3499 1
3845 3459 3460 am
3846 3459 3468 am
3847 3460 3461 am
3848 3460 3465 am
3849 3461 3462 am
3850 3462 3463 am
3851 3462 3500 1
3852 3463 3464 am
3853 3463 3472 1
3854 3464 3465 am
3855 3464 3501 1
3856 3465 3466 am
3857 3466 3467 am
3858 3466 3476 1
3859 3467 3468 am
3860 3467 3502 1
3861 3468 3503 1
3862 3469 3504 1
3863 3470 3505 1
3864 3470 3506 1
3865 3470 3507 1
3866 3471 3508 1
3867 3472 3473 1
3868 3472 3509 1
3869 3472 3518 1
3870 3473 3510 1
3871 3473 3511 1
3872 3473 3512 1
3873 3474 3513 1
3874 3475 3514 1
3875 3476 3515 1
3876 3519 3520 am
3877 3524 3519 am
3878 3519 3571 1
3879 3520 3521 am
3880 3520 3579 1
3881 3521 3522 am
3882 3521 3527 1
3883 3522 3523 am
3884 3522 3525 1
3885 3523 3524 am
3886 3523 3580 1
3887 3524 3572 1
3888 3525 3526 am
3889 3525 3531 am
3890 3526 3527 1
3891 3526 3528 am
3892 3527 3581 1
3893 3527 3582 1
3894 3528 3529 am
3895 3528 3541 am
3896 3529 3530 am
3897 3529 3538 am
3898 3530 3531 am
3899 3530 3535 1
3900 3531 3532 1
3901 3532 3533 1
3902 3532 3583 1
3903 3532 3584 1
3904 3533 3534 1
3905 3533 3585 1
3906 3533 3586 1
3907 3534 3535 1
3908 3534 3587 1
3909 3534 3588 1
3910 3535 3536 am
3911 3536 3537 am
3912 3536 3545 1
3913 3537 3538 am
3914 3537 3542 1
3915 3538 3539 am
3916 3539 3540 am
3917 3539 3559 am
3918 3540 3541 am
3919 3540 3557 1
3920 3541 3573 1
3921 3542 3543 1
3922 3542 3589 1
3923 3542 3618 1
3924 3543 3544 am
3925 3543 3549 am
3926 3544 3545 1
3927 3544 3546 am
3928 3545 3590 1
3929 3545 3619 1
3930 3546 3547 am
3931 3546 3577 1
3932 3547 3548 am
3933 3547 3553 1
3934 3548 3549 am
3935 3548 3550 1
3936 3549 3554 am
3937 3550 3551 1
3938 3550 3556 am
3939 3551 3552 1
3940 3551 3591 1
3941 3551 3592 1
3942 3552 3553 1
3943 3552 3593 1
3944 3552 3594 1
3945 3553 3595 1
3946 3553 3596 1
3947 3554 3555 am
3948 3554 3597 1
3949 3555 3556 am
3950 3555 3576 1
3951 3556 3598 1
3952 3557 3558 1
3953 3557 3599 1
3954 3557 3600 1
3955 3558 3559 am
3956 3558 3563 am
3957 3559 3560 am
3958 3560 3561 am
3959 3560 3601 1
3960 3561 3562 am
3961 3561 3570 am
3962 3562 3563 am
3963 3562 3567 am
3964 3563 3564 am
3965 3564 3565 am
3966 3564 3602 1
3967 3565 3566 am
3968 3565 3574 1
3969 3566 3567 am
3970 3566 3603 1
3971 3567 3568 am
3972 3568 3569 am
3973 3568 3578 1
3974 3569 3570 am
3975 3569 3604 1
3976 3570 3605 1
3977 3571 3606 1
3978 3572 3607 1
3979 3572 3608 1
3980 3572 3609 1
3981 3573 3610 1
3982 3574 3575 1
3983 3574 3611 1
3984 3574 3620 1
3985 3575 3612 1
3986 3575 3613 1
3987 3575 3614 1
3988 3576 3615 1
3989 3577 3616 1
3990 3578 3617 1
3991 3621 3622 am
3992 3626 3621 am
3993 3621 3673 1
3994 3622 3623 am
3995 3622 3681 1
3996 3623 3624 am
3997 3623 3629 1
3998 3624 3625 am
3999 3624 3627 1
4000 3625 3626 am
4001 3625 3682 1
4002 3626 3674 1
4003 3627 3628 am
4004 3627 3633 am
4005 3628 3629 1
4006 3628 3630 am
4007 3629 3683 1
4008 3629 3684 1
4009 3630 3631 am
4010 3630 3643 am
4011 3631 3632 am
4012 3631 3640 am
4013 3632 3633 am
4014 3632 3637 1
4015 3633 3634 1
4016 3634 3635 1
4017 3634 3685 1
4018 3634 3686 1
4019 3635 3636 1
4020 3635 3687 1
4021 3635 3688 1
4022 3636 3637 1
4023 3636 3689 1
4024 3636 3690 1
4025 3637 3638 am
4026 3638 3639 am
4027 3638 3647 1
4028 3639 3640 am
4029 3639 3644 1
4030 3640 3641 am
4031 3641 3642 am
4032 3641 3661 am
4033 3642 3643 am
4034 3642 3659 1
4035 3643 3675 1
4036 3644 3645 1
4037 3644 3691 1
4038 3644 3720 1
4039 3645 3646 am
4040 3645 3651 am
4041 3646 3647 1
4042 3646 3648 am
4043 3647 3692 1
4044 3647 3721 1
4045 3648 3649 am
4046 3648 3679 1
4047 3649 3650 am
4048 3649 3655 1
4049 3650 3651 am
4050 3650 3652 1
4051 3651 3656 am
4052 3652 3653 1
4053 3652 3658 am
4054 3653 3654 1
4055 3653 3693 1
4056 3653 3694 1
4057 3654 3655 1
4058 3654 3695 1
4059 3654 3696 1
4060 3655 3697 1
4061 3655 3698 1
4062 3656 3657 am
4063 3656 3699 1
4064 3657 3658 am
4065 3657 3678 1
4066 3658 3700 1
4067 3659 3660 1
4068 3659 3701 1
4069 3659 3702 1
4070 3660 3661 am
4071 3660 3665 am
4072 3661 3662 am
4073 3662 3663 am
4074 3662 3703 1
4075 3663 3664 am
4076 3663 3672 am
4077 3664 3665 am
4078 3664 3669 am
4079 3665 3666 am
4080 3666 3667 am
4081 3666 3704 1
4082 3667 3668 am
4083 3667 3676 1
4084 3668 3669 am
4085 3668 3705 1
4086 3669 3670 am
4087 3670 3671 am
4088 3670 3680 1
4089 3671 3672 am
4090 3671 3706 1
4091 3672 3707 1
4092 3673 3708 1
4093 3674 3709 1
4094 3674 3710 1
4095 3674 3711 1
4096 3675 3712 1
4097 3676 3677 1
4098 3676 3713 1
4099 3676 3722 1
4100 3677 3714 1
4101 3677 3715 1
4102 3677 3716 1
4103 3678 3717 1
4104 3679 3718 1
4105 3680 3719 1
4106 3723 3724 am
4107 3728 3723 am
4108 3723 3775 1
4109 3724 3725 am
4110 3724 3783 1
4111 3725 3726 am
4112 3725 3731 1
4113 3726 3727 am
4114 3726 3729 1
4115 3727 3728 am
4116 3727 3784 1
4117 3728 3776 1
4118 3729 3730 am
4119 3729 3735 am
4120 3730 3731 1
4121 3730 3732 am
4122 3731 3785 1
4123 3731 3786 1
4124 3732 3733 am
4125 3732 3745 am
4126 3733 3734 am
4127 3733 3742 am
4128 3734 3735 am
4129 3734 3739 1
4130 3735 3736 1
4131 3736 3737 1
4132 3736 3787 1
4133 3736 3788 1
4134 3737 3738 1
4135 3737 3789 1
4136 3737 3790 1
4137 3738 3739 1
4138 3738 3791 1
4139 3738 3792 1
4140 3739 3740 am
4141 3740 3741 am
4142 3740 3749 1
4143 3741 3742 am
4144 3741 3746 1
4145 3742 3743 am
4146 3743 3744 am
4147 3743 3763 am
4148 3744 3745 am
4149 3744 3761 1
4150 3745 3777 1
4151 3746 3747 1
4152 3746 3793 1
4153 3746 3822 1
4154 3747 3748 am
4155 3747 3753 am
4156 3748 3749 1
4157 3748 3750 am
4158 3749 3794 1
4159 3749 3823 1
4160 3750 3751 am
4161 3750 3781 1
4162 3751 3752 am
4163 3751 3757 1
4164 3752 3753 am
4165 3752 3754 1
4166 3753 3758 am
4167 3754 3755 1
4168 3754 3760 am
4169 3755 3756 1
4170 3755 3795 1
4171 3755 3796 1
4172 3756 3757 1
4173 3756 3797 1
4174 3756 3798 1
4175 3757 3799 1
4176 3757 3800 1
4177 3758 3759 am
4178 3758 3801 1
4179 3759 3760 am
4180 3759 3780 1
4181 3760 3802 1
4182 3761 3762 1
4183 3761 3803 1
4184 3761 3804 1
4185 3762 3763 am
4186 3762 3767 am
4187 3763 3764 am
4188 3764 3765 am
4189 3764 3805 1
4190 3765 3766 am
4191 3765 3774 am
4192 3766 3767 am
4193 3766 3771 am
4194 3767 3768 am
4195 3768 3769 am
4196 3768 3806 1
4197 3769 3770 am
4198 3769 3778 1
4199 3770 3771 am
4200 3770 3807 1
4201 3771 3772 am
4202 3772 3773 am
4203 3772 3782 1
4204 3773 3774 am
4205 3773 3808 1
4206 3774 3809 1
4207 3775 3810 1
4208 3776 3811 1
4209 3776 3812 1
4210 3776 3813 1
4211 3777 3814 1
4212 3778 3779 1
4213 3778 3815 1
4214 3778 3824 1
4215 3779 3816 1
4216 3779 3817 1
4217 3779 3818 1
4218 3780 3819 1
4219 3781 3820 1
4220 3782 3821 1
4221 3825 3826 am
4222 3830 3825 am
4223 3825 3877 1
4224 3826 3827 am
4225 3826 3885 1
4226 3827 3828 am
4227 3827 3833 1
4228 3828 3829 am
4229 3828 3831 1
4230 3829 3830 am
4231 3829 3886 1
4232 3830 3878 1
4233 3831 3832 am
4234 3831 3837 am
4235 3832 3833 1
4236 3832 3834 am
4237 3833 3887 1
4238 3833 3888 1
4239 3834 3835 am
4240 3834 3847 am
4241 3835 3836 am
4242 3835 3844 am
4243 3836 3837 am
4244 3836 3841 1
4245 3837 3838 1
4246 3838 3839 1
4247 3838 3889 1
4248 3838 3890 1
4249 3839 3840 1
4250 3839 3891 1
4251 3839 3892 1
4252 3840 3841 1
4253 3840 3893 1
4254 3840 3894 1
4255 3841 3842 am
4256 3842 3843 am
4257 3842 3851 1
4258 3843 3844 am
4259 3843 3848 1
4260 3844 3845 am
4261 3845 3846 am
4262 3845 3865 am
4263 3846 3847 am
4264 3846 3863 1
4265 3847 3879 1
4266 3848 3849 1
4267 3848 3895 1
4268 3848 3924 1
4269 3849 3850 am
4270 3849 3855 am
4271 3850 3851 1
4272 3850 3852 am
4273 3851 3896 1
4274 3851 3925 1
4275 3852 3853 am
4276 3852 3883 1
4277 3853 3854 am
4278 3853 3859 1
4279 3854 3855 am
4280 3854 3856 1
4281 3855 3860 am
4282 3856 3857 1
4283 3856 3862 am
4284 3857 3858 1
4285 3857 3897 1
4286 3857 3898 1
4287 3858 3859 1
4288 3858 3899 1
4289 3858 3900 1
4290 3859 3901 1
4291 3859 3902 1
4292 3860 3861 am
4293 3860 3903 1
4294 3861 3862 am
4295 3861 3882 1
4296 3862 3904 1
4297 3863 3864 1
4298 3863 3905 1
4299 3863 3906 1
4300 3864 3865 am
4301 3864 3869 am
4302 3865 3866 am
4303 3866 3867 am
4304 3866 3907 1
4305 3867 3868 am
4306 3867 3876 am
4307 3868 3869 am
4308 3868 3873 am
4309 3869 3870 am
4310 3870 3871 am
4311 3870 3908 1
4312 3871 3872 am
4313 3871 3880 1
4314 3872 3873 am
4315 3872 3909 1
4316 3873 3874 am
4317 3874 3875 am
4318 3874 3884 1
4319 3875 3876 am
4320 3875 3910 1
4321 3876 3911 1
4322 3877 3912 1
4323 3878 3913 1
4324 3878 3914 1
4325 3878 3915 1
4326 3879 3916 1
4327 3880 3881 1
4328 3880 3917 1
4329 3880 3926 1
4330 3881 3918 1
4331 3881 3919 1
4332 3881 3920 1
4333 3882 3921 1
4334 3883 3922 1
4335 3884 3923 1
4336 3927 3928 am
4337 3932 3927 am
4338 3927 3979 1
4339 3928 3929 am
4340 3928 3987 1
4341 3929 3930 am
4342 3929 3935 1
4343 3930 3931 am
4344 3930 3933 1
4345 3931 3932 am
4346 3931 3988 1
4347 3932 3980 1
4348 3933 3934 am
4349 3933 3939 am
4350 3934 3935 1
4351 3934 3936 am
4352 3935 3989 1
4353 3935 3990 1
4354 3936 3937 am
4355 3936 3949 am
4356 3937 3938 am
4357 3937 3946 am
4358 3938 3939 am
4359 3938 3943 1
4360 3939 3940 1
4361 3940 3941 1
4362 3940 3991 1
4363 3940 3992 1
4364 3941 3942 1
4365 3941 3993 1
4366 3941 3994 1
4367 3942 3943 1
4368 3942 3995 1
4369 3942 3996 1
4370 3943 3944 am
4371 3944 3945 am
4372 3944 3953 1
4373 3945 3946 am
4374 3945 3950 1
4375 3946 3947 am
4376 3947 3948 am
4377 3947 3967 am
4378 3948 3949 am
4379 3948 3965 1
4380 3949 3981 1
4381 3950 3951 1
4382 3950 3997 1
4383 3950 4026 1
4384 3951 3952 am
4385 3951 3957 am
4386 3952 3953 1
4387 3952 3954 am
4388 3953 3998 1
4389 3953 4027 1
4390 3954 3955 am
4391 3954 3985 1
4392 3955 3956 am
4393 3955 3961 1
4394 3956 3957 am
4395 3956 3958 1
4396 3957 3962 am
4397 3958 3959 1
4398 3958 3964 am
4399 3959 3960 1
4400 3959 3999 1
4401 3959 4000 1
4402 3960 3961 1
4403 3960 4001 1
4404 3960 4002 1
4405 3961 4003 1
4406 3961 4004 1
4407 3962 3963 am
4408 3962 4005 1
4409 3963 3964 am
4410 3963 3984 1
4411 3964 4006 1
4412 3965 3966 1
4413 3965 4007 1
4414 3965 4008 1
4415 3966 3967 am
4416 3966 3971 am
4417 3967 3968 am
4418 3968 3969 am
4419 3968 4009 1
4420 3969 3970 am
4421 3969 3978 am
4422 3970 3971 am
4423 3970 3975 am
4424 3971 3972 am
4425 3972 3973 am
4426 3972 4010 1
4427 3973 3974 am
4428 3973 3982 1
4429 3974 3975 am
4430 3974 4011 1
4431 3975 3976 am
4432 3976 3977 am
4433 3976 3986 1
4434 3977 3978 am
4435 3977 4012 1
4436 3978 4013 1
4437 3979 4014 1
4438 3980 4015 1
4439 3980 4016 1
4440 3980 4017 1
4441 3981 4018 1
4442 3982 3983 1
4443 3982 4019 1
4444 3982 4028 1
4445 3983 4020 1
4446 3983 4021 1
4447 3983 4022 1
4448 3984 4023 1
4449 3985 4024 1
4450 3986 4025 1
4451 4029 4030 am
4452 4034 4029 am
4453 4029 4081 1
4454 4030 4031 am
4455 4030 4089 1
4456 4031 4032 am
4457 4031 4037 1
4458 4032 4033 am
4459 4032 4035 1
4460 4033 4034 am
4461 4033 4090 1
4462 4034 4082 1
4463 4035 4036 am
4464 4035 4041 am
4465 4036 4037 1
4466 4036 4038 am
4467 4037 4091 1
4468 4037 4092 1
4469 4038 4039 am
4470 4038 4051 am
4471 4039 4040 am
4472 4039 4048 am
4473 4040 4041 am
4474 4040 4045 1
4475 4041 4042 1
4476 4042 4043 1
4477 4042 4093 1
4478 4042 4094 1
4479 4043 4044 1
4480 4043 4095 1
4481 4043 4096 1
4482 4044 4045 1
4483 4044 4097 1
4484 4044 4098 1
4485 4045 4046 am
4486 4046 4047 am
4487 4046 4055 1
4488 4047 4048 am
4489 4047 4052 1
4490 4048 4049 am
4491 4049 4050 am
4492 4049 4069 am
4493 4050 4051 am
4494 4050 4067 1
4495 4051 4083 1
4496 4052 4053 1
4497 4052 4099 1
4498 4052 4128 1
4499 4053 4054 am
4500 4053 4059 am
4501 4054 4055 1
4502 4054 4056 am
4503 4055 4100 1
4504 4055 4129 1
4505 4056 4057 am
4506 4056 4087 1
4507 4057 4058 am
4508 4057 4063 1
4509 4058 4059 am
4510 4058 4060 1
4511 4059 4064 am
4512 4060 4061 1
4513 4060 4066 am
4514 4061 4062 1
4515 4061 4101 1
4516 4061 4102 1
4517 4062 4063 1
4518 4062 4103 1
4519 4062 4104 1
4520 4063 4105 1
4521 4063 4106 1
4522 4064 4065 am
4523 4064 4107 1
4524 4065 4066 am
4525 4065 4086 1
4526 4066 4108 1
4527 4067 4068 1
4528 4067 4109 1
4529 4067 4110 1
4530 4068 4069 am
4531 4068 4073 am
4532 4069 4070 am
4533 4070 4071 am
4534 4070 4111 1
4535 4071 4072 am
4536 4071 4080 am
4537 4072 4073 am
4538 4072 4077 am
4539 4073 4074 am
4540 4074 4075 am
4541 4074 4112 1
4542 4075 4076 am
4543 4075 4084 1
4544 4076 4077 am
4545 4076 4113 1
4546 4077 4078 am
4547 4078 4079 am
4548 4078 4088 1
4549 4079 4080 am
4550 4079 4114 1
4551 4080 4115 1
4552 4081 4116 1
4553 4082 4117 1
4554 4082 4118 1
4555 4082 4119 1
4556 4083 4120 1
4557 4084 4085 1
4558 4084 4121 1
4559 4084 4130 1
4560 4085 4122 1
4561 4085 4123 1
4562 4085 4124 1
4563 4086 4125 1
4564 4087 4126 1
4565 4088 4127 1
4566 4131 4132 am
4567 4136 4131 am
4568 4131 4183 1
4569 4132 4133 am
4570 4132 4191 1
4571 4133 4134 am
4572 4133 4139 1
4573 4134 4135 am
4574 4134 4137 1
4575 4135 4136 am
4576 4135 4192 1
4577 4136 4184 1
4578 4137 4138 am
4579 4137 4143 am
4580 4138 4139 1
4581 4138 4140 am
4582 4139 4193 1
4583 4139 4194 1
4584 4140 4141 am
4585 4140 4153 am
4586 4141 4142 am
4587 4141 4150 am
4588 4142 4143 am
4589 4142 4147 1
4590 4143 4144 1
4591 4144 4145 1
4592 4144 4195 1
4593 4144 4196 1
4594 4145 4146 1
4595 4145 4197 1
4596 4145 4198 1
4597 4146 4147 1
4598 4146 4199 1
4599 4146 4200 1
4600 4147 4148 am
4601 4148 4149 am
4602 4148 4157 1
4603 4149 4150 am
4604 4149 4154 1
4605 4150 4151 am
4606 4151 4152 am
4607 4151 4171 am
4608 4152 4153 am
4609 4152 4169 1
4610 4153 4185 1
4611 4154 4155 1
4612 4154 4201 1
4613 4154 4230 1
4614 4155 4156 am
4615 4155 4161 am
4616 4156 4157 1
4617 4156 4158 am
4618 4157 4202 1
4619 4157 4231 1
4620 4158 4159 am
4621 4158 4189 1
4622 4159 4160 am
4623 4159 4165 1
4624 4160 4161 am
4625 4160 4162 1
4626 4161 4166 am
4627 4162 4163 1
4628 4162 4168 am
4629 4163 4164 1
4630 4163 4203 1
4631 4163 4204 1
4632 4164 4165 1
4633 4164 4205 1
4634 4164 4206 1
4635 4165 4207 1
4636 4165 4208 1
4637 4166 4167 am
4638 4166 4209 1
4639 4167 4168 am
4640 4167 4188 1
4641 4168 4210 1
4642 4169 4170 1
4643 4169 4211 1
4644 4169 4212 1
4645 4170 4171 am
4646 4170 4175 am
4647 4171 4172 am
4648 4172 4173 am
4649 4172 4213 1
4650 4173 4174 am
4651 4173 4182 am
4652 4174 4175 am
4653 4174 4179 am
4654 4175 4176 am
4655 4176 4177 am
4656 4176 4214 1
4657 4177 4178 am
4658 4177 4186 1
4659 4178 4179 am
4660 4178 4215 1
4661 4179 4180 am
4662 4180 4181 am
4663 4180 4190 1
4664 4181 4182 am
4665 4181 4216 1
4666 4182 4217 1
4667 4183 4218 1
4668 4184 4219 1
4669 4184 4220 1
4670 4184 4221 1
4671 4185 4222 1
4672 4186 4187 1
4673 4186 4223 1
4674 4186 4232 1
4675 4187 4224 1
4676 4187 4225 1
4677 4187 4226 1
4678 4188 4227 1
4679 4189 4228 1
4680 4190 4229 1
4681 4233 4234 am
4682 4238 4233 am
4683 4233 4285 1
4684 4234 4235 am
4685 4234 4293 1
4686 4235 4236 am
4687 4235 4241 1
4688 4236 4237 am
4689 4236 4239 1
4690 4237 4238 am
4691 4237 4294 1
4692 4238 4286 1
4693 4239 4240 am
4694 4239 4245 am
4695 4240 4241 1
4696 4240 4242 am
4697 4241 4295 1
4698 4241 4296 1
4699 4242 4243 am
4700 4242 4255 am
4701 4243 4244 am
4702 4243 4252 am
4703 4244 4245 am
4704 4244 4249 1
4705 4245 4246 1
4706 4246 4247 1
4707 4246 4297 1
4708 4246 4298 1
4709 4247 4248 1
4710 4247 4299 1
4711 4247 4300 1
4712 4248 4249 1
4713 4248 4301 1
4714 4248 4302 1
4715 4249 4250 am
4716 4250 4251 am
4717 4250 4259 1
4718 4251 4252 am
4719 4251 4256 1
4720 4252 4253 am
4721 4253 4254 am
4722 4253 4273 am
4723 4254 4255 am
4724 4254 4271 1
4725 4255 4287 1
4726 4256 4257 1
4727 4256 4303 1
4728 4256 4332 1
4729 4257 4258 am
4730 4257 4263 am
4731 4258 4259 1
4732 4258 4260 am
4733 4259 4304 1
4734 4259 4333 1
4735 4260 4261 am
4736 4260 4291 1
4737 4261 4262 am
4738 4261 4267 1
4739 4262 4263 am
4740 4262 4264 1
4741 4263 4268 am
4742 4264 4265 1
4743 4264 4270 am
4744 4265 4266 1
4745 4265 4305 1
4746 4265 4306 1
4747 4266 4267 1
4748 4266 4307 1
4749 4266 4308 1
4750 4267 4309 1
4751 4267 4310 1
4752 4268 4269 am
4753 4268 4311 1
4754 4269 4270 am
4755 4269 4290 1
4756 4270 4312 1
4757 4271 4272 1
4758 4271 4313 1
4759 4271 4314 1
4760 4272 4273 am
4761 4272 4277 am
4762 4273 4274 am
4763 4274 4275 am
4764 4274 4315 1
4765 4275 4276 am
4766 4275 4284 am
4767 4276 4277 am
4768 4276 4281 am
4769 4277 4278 am
4770 4278 4279 am
4771 4278 4316 1
4772 4279 4280 am
4773 4279 4288 1
4774 4280 4281 am
4775 4280 4317 1
4776 4281 4282 am
4777 4282 4283 am
4778 4282 4292 1
4779 4283 4284 am
4780 4283 4318 1
4781 4284 4319 1
4782 4285 4320 1
4783 4286 4321 1
4784 4286 4322 1
4785 4286 4323 1
4786 4287 4324 1
4787 4288 4289 1
4788 4288 4325 1
4789 4288 4334 1
4790 4289 4326 1
4791 4289 4327 1
4792 4289 4328 1
4793 4290 4329 1
4794 4291 4330 1
4795 4292 4331 1
4796 4335 4336 am
4797 4340 4335 am
4798 4335 4387 1
4799 4336 4337 am
4800 4336 4395 1
4801 4337 4338 am
4802 4337 4343 1
4803 4338 4339 am
4804 4338 4341 1
4805 4339 4340 am
4806 4339 4396 1
4807 4340 4388 1
4808 4341 4342 am
4809 4341 4347 am
4810 4342 4343 1
4811 4342 4344 am
4812 4343 4397 1
4813 4343 4398 1
4814 4344 4345 am
4815 4344 4357 am
4816 4345 4346 am
4817 4345 4354 am
4818 4346 4347 am
4819 4346 4351 1
4820 4347 4348 1
4821 4348 4349 1
4822 4348 4399 1
4823 4348 4400 1
4824 4349 4350 1
4825 4349 4401 1
4826 4349 4402 1
4827 4350 4351 1
4828 4350 4403 1
4829 4350 4404 1
4830 4351 4352 am
4831 4352 4353 am
4832 4352 4361 1
4833 4353 4354 am
4834 4353 4358 1
4835 4354 4355 am
4836 4355 4356 am
4837 4355 4375 am
4838 4356 4357 am
4839 4356 4373 1
4840 4357 4389 1
4841 4358 4359 1
4842 4358 4405 1
4843 4358 4434 1
4844 4359 4360 am
4845 4359 4365 am
4846 4360 4361 1
4847 4360 4362 am
4848 4361 4406 1
4849 4361 4435 1
4850 4362 4363 am
4851 4362 4393 1
4852 4363 4364 am
4853 4363 4369 1
4854 4364 4365 am
4855 4364 4366 1
4856 4365 4370 am
4857 4366 4367 1
4858 4366 4372 am
4859 4367 4368 1
4860 4367 4407 1
4861 4367 4408 1
4862 4368 4369 1
4863 4368 4409 1
4864 4368 4410 1
4865 4369 4411 1
4866 4369 4412 1
4867 4370 4371 am
4868 4370 4413 1
4869 4371 4372 am
4870 4371 4392 1
4871 4372 4414 1
4872 4373 4374 1
4873 4373 4415 1
4874 4373 4416 1
4875 4374 4375 am
4876 4374 4379 am
4877 4375 4376 am
4878 4376 4377 am
4879 4376 4417 1
4880 4377 4378 am
4881 4377 4386 am
4882 4378 4379 am
4883 4378 4383 am
4884 4379 4380 am
4885 4380 4381 am
4886 4380 4418 1
4887 4381 4382 am
4888 4381 4390 1
4889 4382 4383 am
4890 4382 4419 1
4891 4383 4384 am
4892 4384 4385 am
4893 4384 4394 1
4894 4385 4386 am
4895 4385 4420 1
4896 4386 4421 1
4897 4387 4422 1
4898 4388 4423 1
4899 4388 4424 1
4900 4388 4425 1
4901 4389 4426 1
4902 4390 4391 1
4903 4390 4427 1
4904 4390 4436 1
4905 4391 4428 1
4906 4391 4429 1
4907 4391 4430 1
4908 4392 4431 1
4909 4393 4432 1
4910 4394 4433 1
4911 4437 4438 am
4912 4442 4437 am
4913 4437 4489 1
4914 4438 4439 am
4915 4438 4497 1
4916 4439 4440 am
4917 4439 4445 1
4918 4440 4441 am
4919 4440 4443 1
4920 4441 4442 am
4921 4441 4498 1
4922 4442 4490 1
4923 4443 4444 am
4924 4443 4449 am
4925 4444 4445 1
4926 4444 4446 am
4927 4445 4499 1
4928 4445 4500 1
4929 4446 4447 am
4930 4446 4459 am
4931 4447 4448 am
4932 4447 4456 am
4933 4448 4449 am
4934 4448 4453 1
4935 4449 4450 1
4936 4450 4451 1
4937 4450 4501 1
4938 4450 4502 1
4939 4451 4452 1
4940 4451 4503 1
4941 4451 4504 1
4942 4452 4453 1
4943 4452 4505 1
4944 4452 4506 1
4945 4453 4454 am
4946 4454 4455 am
4947 4454 4463 1
4948 4455 4456 am
4949 4455 4460 1
4950 4456 4457 am
4951 4457 4458 am
4952 4457 4477 am
4953 4458 4459 am
4954 4458 4475 1
4955 4459 4491 1
4956 4460 4461 1
4957 4460 4507 1
4958 4460 4536 1
4959 4461 4462 am
4960 4461 4467 am
4961 4462 4463 1
4962 4462 4464 am
4963 4463 4508 1
4964 4463 4537 1
4965 4464 4465 am
4966 4464 4495 1
4967 4465 4466 am
4968 4465 4471 1
4969 4466 4467 am
4970 4466 4468 1
4971 4467 4472 am
4972 4468 4469 1
4973 4468 4474 am
4974 4469 4470 1
4975 4469 4509 1
4976 4469 4510 1
4977 4470 4471 1
4978 4470 4511 1
4979 4470 4512 1
4980 4471 4513 1
4981 4471 4514 1
4982 4472 4473 am
4983 4472 4515 1
4984 4473 4474 am
4985 4473 4494 1
4986 4474 4516 1
4987 4475 4476 1
4988 4475 4517 1
4989 4475 4518 1
4990 4476 4477 am
4991 4476 4481 am
4992 4477 4478 am
4993 4478 4479 am
4994 4478 4519 1
4995 4479 4480 am
4996 4479 4488 am
4997 4480 4481 am
4998 4480 4485 am
4999 4481 4482 am
5000 4482 4483 am
5001 4482 4520 1
5002 4483 4484 am
5003 4483 4492 1
5004 4484 4485 am
5005 4484 4521 1
5006 4485 4486 am
5007 4486 4487 am
5008 4486 4496 1
5009 4487 4488 am
5010 4487 4522 1
5011 4488 4523 1
5012 4489 4524 1
5013 4490 4525 1
5014 4490 4526 1
5015 4490 4527 1
5016 4491 4528 1
5017 4492 4493 1
5018 4492 4529 1
5019 4492 4538 1
5020 4493 4530 1
5021 4493 4531 1
5022 4493 4532 1
5023 4494 4533 1
5024 4495 4534 1
5025 4496 4535 1
5026 4539 4540 am
5027 4544 4539 am
5028 4539 4591 1
5029 4540 4541 am
5030 4540 4599 1
5031 4541 4542 am
5032 4541 4547 1
5033 4542 4543 am
5034 4542 4545 1
5035 4543 4544 am
5036 4543 4600 1
5037 4544 4592 1
5038 4545 4546 am
5039 4545 4551 am
5040 4546 4547 1
5041 4546 4548 am
5042 4547 4601 1
5043 4547 4602 1
5044 4548 4549 am
5045 4548 4561 am
5046 4549 4550 am
5047 4549 4558 am
5048 4550 4551 am
5049 4550 4555 1
5050 4551 4552 1
5051 4552 4553 1
5052 4552 4603 1
5053 4552 4604 1
5054 4553 4554 1
5055 4553 4605 1
5056 4553 4606 1
5057 4554 4555 1
5058 4554 4607 1
5059 4554 4608 1
5060 4555 4556 am
5061 4556 4557 am
5062 4556 4565 1
5063 4557 4558 am
5064 4557 4562 1
5065 4558 4559 am
5066 4559 4560 am
5067 4559 4579 am
5068 4560 4561 am
5069 4560 4577 1
5070 4561 4593 1
5071 4562 4563 1
5072 4562 4609 1
5073 4562 4638 1
5074 4563 4564 am
5075 4563 4569 am
5076 4564 4565 1
5077 4564 4566 am
5078 4565 4610 1
5079 4565 4639 1
5080 4566 4567 am
5081 4566 4597 1
5082 4567 4568 am
5083 4567 4573 1
5084 4568 4569 am
5085 4568 4570 1
5086 4569 4574 am
5087 4570 4571 1
5088 4570 4576 am
5089 4571 4572 1
5090 4571 4611 1
5091 4571 4612 1
5092 4572 4573 1
5093 4572 4613 1
5094 4572 4614 1
5095 4573 4615 1
5096 4573 4616 1
5097 4574 4575 am
5098 4574 4617 1
5099 4575 4576 am
5100 4575 4596 1
5101 4576 4618 1
5102 4577 4578 1
5103 4577 4619 1
5104 4577 4620 1
5105 4578 4579 am
5106 4578 4583 am
5107 4579 4580 am
5108 4580 4581 am
5109 4580 4621 1
5110 4581 4582 am
5111 4581 4590 am
5112 4582 4583 am
5113 4582 4587 am
5114 4583 4584 am
5115 4584 4585 am
5116 4584 4622 1
5117 4585 4586 am
5118 4585 4594 1
5119 4586 4587 am
5120 4586 4623 1
5121 4587 4588 am
5122 4588 4589 am
5123 4588 4598 1
5124 4589 4590 am
5125 4589 4624 1
5126 4590 4625 1
5127 4591 4626 1
5128 4592 4627 1
5129 4592 4628 1
5130 4592 4629 1
5131 4593 4630 1
5132 4594 4595 1
5133 4594 4631 1
5134 4594 4640 1
5135 4595 4632 1
5136 4595 4633 1
5137 4595 4634 1
5138 4596 4635 1
5139 4597 4636 1
5140 4598 4637 1
5141 4641 4642 1
5142 4641 4646 1
5143 4641 4788 1
5144 4641 4789 1
5145 4643 4642 1
5146 4642 4790 1
5147 4642 4791 1
5148 4644 4643 1
5149 4643 4650 1
5150 4643 4792 1
5151 4645 4644 1
5152 4644 4647 1
5153 4644 4793 1
5154 4646 4645 1
5155 4645 4794 1
5156 4645 4795 1
5157 4648 4647 1
5158 4647 4654 1
5159 4647 4796 1
5160 4649 4648 1
5161 4648 4651 1
5162 4648 4797 1
5163 4650 4649 1
5164 4649 4798 1
5165 4649 4799 1
5166 4650 4800 1
5167 4650 4801 1
5168 4652 4651 1
5169 4653 4652 1
5170 4652 4658 1
5171 4652 4802 1
5172 4654 4653 1
5173 4653 4655 1
5174 4653 4803 1
5175 4654 4804 1
5176 4654 4805 1
5177 4656 4655 1
5178 4655 4665 2
5179 4657 4656 1
5180 4656 4662 1
5181 4658 4657 1
5182 4657 4659 1
5183 4658 4670 1
5184 4658 4806 1
5185 4660 4659 1
5186 4659 4672 1
5187 4661 4660 1
5188 4660 4669 1
5189 4662 4661 1
5190 4661 4666 1
5191 4662 4663 1
5192 4664 4663 1
5193 4663 4807 1
5194 4663 4808 1
5195 4665 4664 1
5196 4664 4809 1
5197 4664 4810 1
5198 4665 4811 1
5199 4667 4666 1
5200 4668 4667 1
5201 4667 4703 1
5202 4669 4668 1
5203 4668 4687 1
5204 4669 4685 1
5205 4671 4670 1
5206 4670 4676 2
5207 4672 4671 1
5208 4671 4673 1
5209 4671 4812 1
5210 4672 4686 1
5211 4674 4673 2
5212 4673 4680 1
5213 4675 4674 1
5214 4674 4677 1
5215 4676 4675 1
5216 4675 4813 1
5217 4675 4814 1
5218 4676 4815 1
5219 4678 4677 1
5220 4677 4816 1
5221 4677 4817 1
5222 4679 4678 1
5223 4678 4818 1
5224 4678 4819 1
5225 4680 4679 2
5226 4679 4684 1
5227 4680 4681 1
5228 4682 4681 1
5229 4681 4820 1
5230 4681 4821 1
5231 4683 4682 1
5232 4682 4757 1
5233 4682 4822 1
5234 4684 4683 1
5235 4683 4823 1
5236 4683 4824 1
5237 4684 4825 1
5238 4684 4826 1
5239 4686 4685 1
5240 4685 4689 1
5241 4686 4827 1
5242 4688 4687 1
5243 4687 4693 1
5244 4689 4688 1
5245 4688 4690 1
5246 4691 4690 1
5247 4690 4828 1
5248 4692 4691 1
5249 4691 4697 1
5250 4693 4692 1
5251 4692 4694 1
5252 4693 4702 1
5253 4695 4694 1
5254 4694 4704 1
5255 4696 4695 1
5256 4695 4701 1
5257 4697 4696 1
5258 4696 4698 1
5259 4697 4829 1
5260 4699 4698 1
5261 4698 4714 1
5262 4700 4699 1
5263 4699 4711 1
5264 4701 4700 1
5265 4700 4708 1
5266 4701 4706 1
5267 4703 4702 1
5268 4702 4705 1
5269 4703 4830 1
5270 4705 4704 1
5271 4704 4707 1
5272 4705 4723 1
5273 4707 4706 1
5274 4706 4710 1
5275 4707 4725 1
5276 4709 4708 1
5277 4708 4741 1
5278 4710 4709 1
5279 4709 4736 1
5280 4710 4734 1
5281 4712 4711 1
5282 4713 4712 1
5283 4712 4718 1
5284 4712 4831 1
5285 4714 4713 1
5286 4713 4715 1
5287 4713 4832 1
5288 4714 4760 1
5289 4714 4833 1
5290 4716 4715 1
5291 4715 4834 1
5292 4715 4835 1
5293 4717 4716 1
5294 4716 4836 1
5295 4716 4837 1
5296 4718 4717 1
5297 4717 4722 1
5298 4717 4838 1
5299 4718 4719 1
5300 4718 4839 1
5301 4720 4719 1
5302 4719 4840 1
5303 4719 4841 1
5304 4721 4720 1
5305 4720 4842 1
5306 4720 4843 1
5307 4722 4721 1
5308 4721 4844 1
5309 4721 4845 1
5310 4722 4846 1
5311 4724 4723 1
5312 4723 4729 1
5313 4725 4724 1
5314 4724 4726 1
5315 4725 4735 1
5316 4727 4726 1
5317 4728 4727 1
5318 4727 4733 1
5319 4727 4847 1
5320 4729 4728 1
5321 4728 4730 1
5322 4728 4848 1
5323 4731 4730 1
5324 4730 4849 1
5325 4730 4850 1
5326 4732 4731 1
5327 4731 4851 1
5328 4731 4852 1
5329 4733 4732 1
5330 4732 4853 1
5331 4732 4854 1
5332 4733 4855 1
5333 4733 4856 1
5334 4735 4734 1
5335 4734 4738 1
5336 4735 4857 1
5337 4737 4736 1
5338 4736 4739 1
5339 4738 4737 1
5340 4737 4742 1
5341 4738 4858 1
5342 4740 4739 1
5343 4739 4744 1
5344 4741 4740 1
5345 4740 4745 1
5346 4741 4859 1
5347 4743 4742 1
5348 4744 4743 1
5349 4743 4754 1
5350 4744 4747 1
5351 4746 4745 1
5352 4745 4751 1
5353 4745 4860 1
5354 4747 4746 1
5355 4746 4748 1
5356 4746 4861 1
5357 4747 4752 1
5358 4749 4748 1
5359 4748 4755 1
5360 4748 4862 1
5361 4750 4749 1
5362 4749 4863 1
5363 4749 4864 1
5364 4751 4750 1
5365 4750 4865 1
5366 4750 4866 1
5367 4751 4867 1
5368 4751 4868 1
5369 4753 4752 1
5370 4752 4756 1
5371 4754 4753 1
5372 4753 4764 1
5373 4754 4761 1
5374 4755 4756 1
5375 4755 4779 1
5376 4756 4775 1
5377 4757 4758 1
5378 4757 4759 1
5379 4757 4869 1
5380 4758 4870 1
5381 4758 4871 1
5382 4758 4872 1
5383 4759 4873 1
5384 4759 4874 1
5385 4759 4875 1
5386 4760 4876 1
5387 4762 4761 1
5388 4761 4877 1
5389 4763 4762 1
5390 4762 4878 1
5391 4764 4763 1
5392 4763 4768 1
5393 4764 4765 1
5394 4766 4765 1
5395 4765 4775 1
5396 4767 4766 1
5397 4766 4772 1
5398 4768 4767 1
5399 4767 4769 1
5400 4768 4879 1
5401 4770 4769 1
5402 4769 4880 1
5403 4771 4770 1
5404 4770 4881 1
5405 4772 4771 1
5406 4771 4778 1
5407 4772 4773 1
5408 4774 4773 1
5409 4773 4776 1
5410 4775 4774 1
5411 4774 4780 1
5412 4777 4776 1
5413 4776 4781 1
5414 4778 4777 1
5415 4777 4882 1
5416 4778 4883 1
5417 4780 4779 1
5418 4779 4884 1
5419 4780 4782 1
5420 4782 4781 1
5421 4781 4786 1
5422 4782 4783 1
5423 4784 4783 1
5424 4783 4885 1
5425 4783 4886 1
5426 4785 4784 1
5427 4784 4887 1
5428 4784 4888 1
5429 4786 4785 1
5430 4785 4889 1
5431 4785 4890 1
5432 4786 4787 2
5433 4891 4892 1
5434 4891 4896 1
5435 4891 5038 1
5436 4891 5039 1
5437 4893 4892 1
5438 4892 5040 1
5439 4892 5041 1
5440 4894 4893 1
5441 4893 4900 1
5442 4893 5042 1
5443 4895 4894 1
5444 4894 4897 1
5445 4894 5043 1
5446 4896 4895 1
5447 4895 5044 1
5448 4895 5045 1
5449 4898 4897 1
5450 4897 4904 1
5451 4897 5046 1
5452 4899 4898 1
5453 4898 4901 1
5454 4898 5047 1
5455 4900 4899 1
5456 4899 5048 1
5457 4899 5049 1
5458 4900 5050 1
5459 4900 5051 1
5460 4902 4901 1
5461 4903 4902 1
5462 4902 4908 1
5463 4902 5052 1
5464 4904 4903 1
5465 4903 4905 1
5466 4903 5053 1
5467 4904 5054 1
5468 4904 5055 1
5469 4906 4905 1
5470 4905 4915 2
5471 4907 4906 1
5472 4906 4912 1
5473 4908 4907 1
5474 4907 4909 1
5475 4908 4920 1
5476 4908 5056 1
5477 4910 4909 1
5478 4909 4922 1
5479 4911 4910 1
5480 4910 4919 1
5481 4912 4911 1
5482 4911 4916 1
5483 4912 4913 1
5484 4914 4913 1
5485 4913 5057 1
5486 4913 5058 1
5487 4915 4914 1
5488 4914 5059 1
5489 4914 5060 1
5490 4915 5061 1
5491 4917 4916 1
5492 4918 4917 1
5493 4917 4953 1
5494 4919 4918 1
5495 4918 4937 1
5496 4919 4935 1
5497 4921 4920 1
5498 4920 4926 2
5499 4922 4921 1
5500 4921 4923 1
5501 4921 5062 1
5502 4922 4936 1
5503 4924 4923 2
5504 4923 4930 1
5505 4925 4924 1
5506 4924 4927 1
5507 4926 4925 1
5508 4925 5063 1
5509 4925 5064 1
5510 4926 5065 1
5511 4928 4927 1
5512 4927 5066 1
5513 4927 5067 1
5514 4929 4928 1
5515 4928 5068 1
5516 4928 5069 1
5517 4930 4929 2
5518 4929 4934 1
5519 4930 4931 1
5520 4932 4931 1
5521 4931 5070 1
5522 4931 5071 1
5523 4933 4932 1
5524 4932 5007 1
5525 4932 5072 1
5526 4934 4933 1
5527 4933 5073 1
5528 4933 5074 1
5529 4934 5075 1
5530 4934 5076 1
5531 4936 4935 1
5532 4935 4939 1
5533 4936 5077 1
5534 4938 4937 1
5535 4937 4943 1
5536 4939 4938 1
5537 4938 4940 1
5538 4941 4940 1
5539 4940 5078 1
5540 4942 4941 1
5541 4941 4947 1
5542 4943 4942 1
5543 4942 4944 1
5544 4943 4952 1
5545 4945 4944 1
5546 4944 4954 1
5547 4946 4945 1
5548 4945 4951 1
5549 4947 4946 1
5550 4946 4948 1
5551 4947 5079 1
5552 4949 4948 1
5553 4948 4964 1
5554 4950 4949 1
5555 4949 4961 1
5556 4951 4950 1
5557 4950 4958 1
5558 4951 4956 1
5559 4953 4952 1
5560 4952 4955 1
5561 4953 5080 1
5562 4955 4954 1
5563 4954 4957 1
5564 4955 4973 1
5565 4957 4956 1
5566 4956 4960 1
5567 4957 4975 1
5568 4959 4958 1
5569 4958 4991 1
5570 4960 4959 1
5571 4959 4986 1
5572 4960 4984 1
5573 4962 4961 1
5574 4963 4962 1
5575 4962 4968 1
5576 4962 5081 1
5577 4964 4963 1
5578 4963 4965 1
5579 4963 5082 1
5580 4964 5010 1
5581 4964 5083 1
5582 4966 4965 1
5583 4965 5084 1
5584 4965 5085 1
5585 4967 4966 1
5586 4966 5086 1
5587 4966 5087 1
5588 4968 4967 1
5589 4967 4972 1
5590 4967 5088 1
5591 4968 4969 1
5592 4968 5089 1
5593 4970 4969 1
5594 4969 5090 1
5595 4969 5091 1
5596 4971 4970 1
5597 4970 5092 1
5598 4970 5093 1
5599 4972 4971 1
5600 4971 5094 1
5601 4971 5095 1
5602 4972 5096 1
5603 4974 4973 1
5604 4973 4979 1
5605 4975 4974 1
5606 4974 4976 1
5607 4975 4985 1
5608 4977 4976 1
5609 4978 4977 1
5610 4977 4983 1
5611 4977 5097 1
5612 4979 4978 1
5613 4978 4980 1
5614 4978 5098 1
5615 4981 4980 1
5616 4980 5099 1
5617 4980 5100 1
5618 4982 4981 1
5619 4981 5101 1
5620 4981 5102 1
5621 4983 4982 1
5622 4982 5103 1
5623 4982 5104 1
5624 4983 5105 1
5625 4983 5106 1
5626 4985 4984 1
5627 4984 4988 1
5628 4985 5107 1
5629 4987 4986 1
5630 4986 4989 1
5631 4988 4987 1
5632 4987 4992 1
5633 4988 5108 1
5634 4990 4989 1
5635 4989 4994 1
5636 4991 4990 1
5637 4990 4995 1
5638 4991 5109 1
5639 4993 4992 1
5640 4994 4993 1
5641 4993 5004 1
5642 4994 4997 1
5643 4996 4995 1
5644 4995 5001 1
5645 4995 5110 1
5646 4997 4996 1
5647 4996 4998 1
5648 4996 5111 1
5649 4997 5002 1
5650 4999 4998 1
5651 4998 5005 1
5652 4998 5112 1
5653 5000 4999 1
5654 4999 5113 1
5655 4999 5114 1
5656 5001 5000 1
5657 5000 5115 1
5658 5000 5116 1
5659 5001 5117 1
5660 5001 5118 1
5661 5003 5002 1
5662 5002 5006 1
5663 5004 5003 1
5664 5003 5014 1
5665 5004 5011 1
5666 5005 5006 1
5667 5005 5029 1
5668 5006 5025 1
5669 5007 5008 1
5670 5007 5009 1
5671 5007 5119 1
5672 5008 5120 1
5673 5008 5121 1
5674 5008 5122 1
5675 5009 5123 1
5676 5009 5124 1
5677 5009 5125 1
5678 5010 5126 1
5679 5012 5011 1
5680 5011 5127 1
5681 5013 5012 1
5682 5012 5128 1
5683 5014 5013 1
5684 5013 5018 1
5685 5014 5015 1
5686 5016 5015 1
5687 5015 5025 1
5688 5017 5016 1
5689 5016 5022 1
5690 5018 5017 1
5691 5017 5019 1
5692 5018 5129 1
5693 5020 5019 1
5694 5019 5130 1
5695 5021 5020 1
5696 5020 5131 1
5697 5022 5021 1
5698 5021 5028 1
5699 5022 5023 1
5700 5024 5023 1
5701 5023 5026 1
5702 5025 5024 1
5703 5024 5030 1
5704 5027 5026 1
5705 5026 5031 1
5706 5028 5027 1
5707 5027 5132 1
5708 5028 5133 1
5709 5030 5029 1
5710 5029 5134 1
5711 5030 5032 1
5712 5032 5031 1
5713 5031 5036 1
5714 5032 5033 1
5715 5034 5033 1
5716 5033 5135 1
5717 5033 5136 1
5718 5035 5034 1
5719 5034 5137 1
5720 5034 5138 1
5721 5036 5035 1
5722 5035 5139 1
5723 5035 5140 1
5724 5036 5037 2
5725 5141 5142 1
5726 5141 5146 1
5727 5141 5288 1
5728 5141 5289 1
5729 5143 5142 1
5730 5142 5290 1
5731 5142 5291 1
5732 5144 5143 1
5733 5143 5150 1
5734 5143 5292 1
5735 5145 5144 1
5736 5144 5147 1
5737 5144 5293 1
5738 5146 5145 1
5739 5145 5294 1
5740 5145 5295 1
5741 5148 5147 1
5742 5147 5154 1
5743 5147 5296 1
5744 5149 5148 1
5745 5148 5151 1
5746 5148 5297 1
5747 5150 5149 1
5748 5149 5298 1
5749 5149 5299 1
5750 5150 5300 1
5751 5150 5301 1
5752 5152 5151 1
5753 5153 5152 1
5754 5152 5158 1
5755 5152 5302 1
5756 5154 5153 1
5757 5153 5155 1
5758 5153 5303 1
5759 5154 5304 1
5760 5154 5305 1
5761 5156 5155 1
5762 5155 5165 2
5763 5157 5156 1
5764 5156 5162 1
5765 5158 5157 1
5766 5157 5159 1
5767 5158 5170 1
5768 5158 5306 1
5769 5160 5159 1
5770 5159 5172 1
5771 5161 5160 1
5772 5160 5169 1
5773 5162 5161 1
5774 5161 5166 1
5775 5162 5163 1
5776 5164 5163 1
5777 5163 5307 1
5778 5163 5308 1
5779 5165 5164 1
5780 5164 5309 1
5781 5164 5310 1
5782 5165 5311 1
5783 5167 5166 1
5784 5168 5167 1
5785 5167 5203 1
5786 5169 5168 1
5787 5168 5187 1
5788 5169 5185 1
5789 5171 5170 1
5790 5170 5176 2
5791 5172 5171 1
5792 5171 5173 1
5793 5171 5312 1
5794 5172 5186 1
5795 5174 5173 2
5796 5173 5180 1
5797 5175 5174 1
5798 5174 5177 1
5799 5176 5175 1
5800 5175 5313 1
5801 5175 5314 1
5802 5176 5315 1
5803 5178 5177 1
5804 5177 5316 1
5805 5177 5317 1
5806 5179 5178 1
5807 5178 5318 1
5808 5178 5319 1
5809 5180 5179 2
5810 5179 5184 1
5811 5180 5181 1
5812 5182 5181 1
5813 5181 5320 1
5814 5181 5321 1
5815 5183 5182 1
5816 5182 5257 1
5817 5182 5322 1
5818 5184 5183 1
5819 5183 5323 1
5820 5183 5324 1
5821 5184 5325 1
5822 5184 5326 1
5823 5186 5185 1
5824 5185 5189 1
5825 5186 5327 1
5826 5188 5187 1
5827 5187 5193 1
5828 5189 5188 1
5829 5188 5190 1
5830 5191 5190 1
5831 5190 5328 1
5832 5192 5191 1
5833 5191 5197 1
5834 5193 5192 1
5835 5192 5194 1
5836 5193 5202 1
5837 5195 5194 1
5838 5194 5204 1
5839 5196 5195 1
5840 5195 5201 1
5841 5197 5196 1
5842 5196 5198 1
5843 5197 5329 1
5844 5199 5198 1
5845 5198 5214 1
5846 5200 5199 1
5847 5199 5211 1
5848 5201 5200 1
5849 5200 5208 1
5850 5201 5206 1
5851 5203 5202 1
5852 5202 5205 1
5853 5203 5330 1
5854 5205 5204 1
5855 5204 5207 1
5856 5205 5223 1
5857 5207 5206 1
5858 5206 5210 1
5859 5207 5225 1
5860 5209 5208 1
5861 5208 5241 1
5862 5210 5209 1
5863 5209 5236 1
5864 5210 5234 1
5865 5212 5211 1
5866 5213 5212 1
5867 5212 5218 1
5868 5212 5331 1
5869 5214 5213 1
5870 5213 5215 1
5871 5213 5332 1
5872 5214 5260 1
5873 5214 5333 1
5874 5216 5215 1
5875 5215 5334 1
5876 5215 5335 1
5877 5217 5216 1
5878 5216 5336 1
5879 5216 5337 1
5880 5218 5217 1
5881 5217 5222 1
5882 5217 5338 1
5883 5218 5219 1
5884 5218 5339 1
5885 5220 5219 1
5886 5219 5340 1
5887 5219 5341 1
5888 5221 5220 1
5889 5220 5342 1
5890 5220 5343 1
5891 5222 5221 1
5892 5221 5344 1
5893 5221 5345 1
5894 5222 5346 1
5895 5224 5223 1
5896 5223 5229 1
5897 5225 5224 1
5898 5224 5226 1
5899 5225 5235 1
5900 5227 5226 1
5901 5228 5227 1
5902 5227 5233 1
5903 5227 5347 1
5904 5229 5228 1
5905 5228 5230 1
5906 5228 5348 1
5907 5231 5230 1
5908 5230 5349 1
5909 5230 5350 1
5910 5232 5231 1
5911 5231 5351 1
5912 5231 5352 1
5913 5233 5232 1
5914 5232 5353 1
5915 5232 5354 1
5916 5233 5355 1
5917 5233 5356 1
5918 5235 5234 1
5919 5234 5238 1
5920 5235 5357 1
5921 5237 5236 1
5922 5236 5239 1
5923 5238 5237 1
5924 5237 5242 1
5925 5238 5358 1
5926 5240 5239 1
5927 5239 5244 1
5928 5241 5240 1
5929 5240 5245 1
5930 5241 5359 1
5931 5243 5242 1
5932 5244 5243 1
5933 5243 5254 1
5934 5244 5247 1
5935 5246 5245 1
5936 5245 5251 1
5937 5245 5360 1
5938 5247 5246 1
5939 5246 5248 1
5940 5246 5361 1
5941 5247 5252 1
5942 5249 5248 1
5943 5248 5255 1
5944 5248 5362 1
5945 5250 5249 1
5946 5249 5363 1
5947 5249 5364 1
5948 5251 5250 1
5949 5250 5365 1
5950 5250 5366 1
5951 5251 5367 1
5952 5251 5368 1
5953 5253 5252 1
5954 5252 5256 1
5955 5254 5253 1
5956 5253 5264 1
5957 5254 5261 1
5958 5255 5256 1
5959 5255 5279 1
5960 5256 5275 1
5961 5257 5258 1
5962 5257 5259 1
5963 5257 5369 1
5964 5258 5370 1
5965 5258 5371 1
5966 5258 5372 1
5967 5259 5373 1
5968 5259 5374 1
5969 5259 5375 1
5970 5260 5376 1
5971 5262 5261 1
5972 5261 5377 1
5973 5263 5262 1
5974 5262 5378 1
5975 5264 5263 1
5976 5263 5268 1
5977 5264 5265 1
5978 5266 5265 1
5979 5265 5275 1
5980 5267 5266 1
5981 5266 5272 1
5982 5268 5267 1
5983 5267 5269 1
5984 5268 5379 1
5985 5270 5269 1
5986 5269 5380 1
5987 5271 5270 1
5988 5270 5381 1
5989 5272 5271 1
5990 5271 5278 1
5991 5272 5273 1
5992 5274 5273 1
5993 5273 5276 1
5994 5275 5274 1
5995 5274 5280 1
5996 5277 5276 1
5997 5276 5281 1
5998 5278 5277 1
5999 5277 5382 1
6000 5278 5383 1
6001 5280 5279 1
6002 5279 5384 1
6003 5280 5282 1
6004 5282 5281 1
6005 5281 5286 1
6006 5282 5283 1
6007 5284 5283 1
6008 5283 5385 1
6009 5283 5386 1
6010 5285 5284 1
6011 5284 5387 1
6012 5284 5388 1
6013 5286 5285 1
6014 5285 5389 1
6015 5285 5390 1
6016 5286 5287 2
6017 5391 5392 1
6018 5391 5396 1
6019 5391 5538 1
6020 5391 5539 1
6021 5393 5392 1
6022 5392 5540 1
6023 5392 5541 1
6024 5394 5393 1
6025 5393 5400 1
6026 5393 5542 1
6027 5395 5394 1
6028 5394 5397 1
6029 5394 5543 1
6030 5396 5395 1
6031 5395 5544 1
6032 5395 5545 1
6033 5398 5397 1
6034 5397 5404 1
6035 5397 5546 1
6036 5399 5398 1
6037 5398 5401 1
6038 5398 5547 1
6039 5400 5399 1
6040 5399 5548 1
6041 5399 5549 1
6042 5400 5550 1
6043 5400 5551 1
6044 5402 5401 1
6045 5403 5402 1
6046 5402 5408 1
6047 5402 5552 1
6048 5404 5403 1
6049 5403 5405 1
6050 5403 5553 1
6051 5404 5554 1
6052 5404 5555 1
6053 5406 5405 1
6054 5405 5415 2
6055 5407 5406 1
6056 5406 5412 1
6057 5408 5407 1
6058 5407 5409 1
6059 5408 5420 1
6060 5408 5556 1
6061 5410 5409 1
6062 5409 5422 1
6063 5411 5410 1
6064 5410 5419 1
6065 5412 5411 1
6066 5411 5416 1
6067 5412 5413 1
6068 5414 5413 1
6069 5413 5557 1
6070 5413 5558 1
6071 5415 5414 1
6072 5414 5559 1
6073 5414 5560 1
6074 5415 5561 1
6075 5417 5416 1
6076 5418 5417 1
6077 5417 5453 1
6078 5419 5418 1
6079 5418 5437 1
6080 5419 5435 1
6081 5421 5420 1
6082 5420 5426 2
6083 5422 5421 1
6084 5421 5423 1
6085 5421 5562 1
6086 5422 5436 1
6087 5424 5423 2
6088 5423 5430 1
6089 5425 5424 1
6090 5424 5427 1
6091 5426 5425 1
6092 5425 5563 1
6093 5425 5564 1
6094 5426 5565 1
6095 5428 5427 1
6096 5427 5566 1
6097 5427 5567 1
6098 5429 5428 1
6099 5428 5568 1
6100 5428 5569 1
6101 5430 5429 2
6102 5429 5434 1
6103 5430 5431 1
6104 5432 5431 1
6105 5431 5570 1
6106 5431 5571 1
6107 5433 5432 1
6108 5432 5507 1
6109 5432 5572 1
6110 5434 5433 1
6111 5433 5573 1
6112 5433 5574 1
6113 5434 5575 1
6114 5434 5576 1
6115 5436 5435 1
6116 5435 5439 1
6117 5436 5577 1
6118 5438 5437 1
6119 5437 5443 1
6120 5439 5438 1
6121 5438 5440 1
6122 5441 5440 1
6123 5440 5578 1
6124 5442 5441 1
6125 5441 5447 1
6126 5443 5442 1
6127 5442 5444 1
6128 5443 5452 1
6129 5445 5444 1
6130 5444 5454 1
6131 5446 5445 1
6132 5445 5451 1
6133 5447 5446 1
6134 5446 5448 1
6135 5447 5579 1
6136 5449 5448 1
6137 5448 5464 1
6138 5450 5449 1
6139 5449 5461 1
6140 5451 5450 1
6141 5450 5458 1
6142 5451 5456 1
6143 5453 5452 1
6144 5452 5455 1
6145 5453 5580 1
6146 5455 5454 1
6147 5454 5457 1
6148 5455 5473 1
6149 5457 5456 1
6150 5456 5460 1
6151 5457 5475 1
6152 5459 5458 1
6153 5458 5491 1
6154 5460 5459 1
6155 5459 5486 1
6156 5460 5484 1
6157 5462 5461 1
6158 5463 5462 1
6159 5462 5468 1
6160 5462 5581 1
6161 5464 5463 1
6162 5463 5465 1
6163 5463 5582 1
6164 5464 5510 1
6165 5464 5583 1
6166 5466 5465 1
6167 5465 5584 1
6168 5465 5585 1
6169 5467 5466 1
6170 5466 5586 1
6171 5466 5587 1
6172 5468 5467 1
6173 5467 5472 1
6174 5467 5588 1
6175 5468 5469 1
6176 5468 5589 1
6177 5470 5469 1
6178 5469 5590 1
6179 5469 5591 1
6180 5471 5470 1
6181 5470 5592 1
6182 5470 5593 1
6183 5472 5471 1
6184 5471 5594 1
6185 5471 5595 1
6186 5472 5596 1
6187 5474 5473 1
6188 5473 5479 1
6189 5475 5474 1
6190 5474 5476 1
6191 5475 5485 1
6192 5477 5476 1
6193 5478 5477 1
6194 5477 5483 1
6195 5477 5597 1
6196 5479 5478 1
6197 5478 5480 1
6198 5478 5598 1
6199 5481 5480 1
6200 5480 5599 1
6201 5480 5600 1
6202 5482 5481 1
6203 5481 5601 1
6204 5481 5602 1
6205 5483 5482 1
6206 5482 5603 1
6207 5482 5604 1
6208 5483 5605 1
6209 5483 5606 1
6210 5485 5484 1
6211 5484 5488 1
6212 5485 5607 1
6213 5487 5486 1
6214 5486 5489 1
6215 5488 5487 1
6216 5487 5492 1
6217 5488 5608 1
6218 5490 5489 1
6219 5489 5494 1
6220 5491 5490 1
6221 5490 5495 1
6222 5491 5609 1
6223 5493 5492 1
6224 5494 5493 1
6225 5493 5504 1
6226 5494 5497 1
6227 5496 5495 1
6228 5495 5501 1
6229 5495 5610 1
6230 5497 5496 1
6231 5496 5498 1
6232 5496 5611 1
6233 5497 5502 1
6234 5499 5498 1
6235 5498 5505 1
6236 5498 5612 1
6237 5500 5499 1
6238 5499 5613 1
6239 5499 5614 1
6240 5501 5500 1
6241 5500 5615 1
6242 5500 5616 1
6243 5501 5617 1
6244 5501 5618 1
6245 5503 5502 1
6246 5502 5506 1
6247 5504 5503 1
6248 5503 5514 1
6249 5504 5511 1
6250 5505 5506 1
6251 5505 5529 1
6252 5506 5525 1
6253 5507 5508 1
6254 5507 5509 1
6255 5507 5619 1
6256 5508 5620 1
6257 5508 5621 1
6258 5508 5622 1
6259 5509 5623 1
6260 5509 5624 1
6261 5509 5625 1
6262 5510 5626 1
6263 5512 5511 1
6264 5511 5627 1
6265 5513 5512 1
6266 5512 5628 1
6267 5514 5513 1
6268 5513 5518 1
6269 5514 5515 1
6270 5516 5515 1
6271 5515 5525 1
6272 5517 5516 1
6273 5516 5522 1
6274 5518 5517 1
6275 5517 5519 1
6276 5518 5629 1
6277 5520 5519 1
6278 5519 5630 1
6279 5521 5520 1
6280 5520 5631 1
6281 5522 5521 1
6282 5521 5528 1
6283 5522 5523 1
6284 5524 5523 1
6285 5523 5526 1
6286 5525 5524 1
6287 5524 5530 1
6288 5527 5526 1
6289 5526 5531 1
6290 5528 5527 1
6291 5527 5632 1
6292 5528 5633 1
6293 5530 5529 1
6294 5529 5634 1
6295 5530 5532 1
6296 5532 5531 1
6297 5531 5536 1
6298 5532 5533 1
6299 5534 5533 1
6300 5533 5635 1
6301 5533 5636 1
6302 5535 5534 1
6303 5534 5637 1
6304 5534 5638 1
6305 5536 5535 1
6306 5535 5639 1
6307 5535 5640 1
6308 5536 5537 2
6309 5641 5642 1
6310 5641 5646 1
6311 5641 5788 1
6312 5641 5789 1
6313 5643 5642 1
6314 5642 5790 1
6315 5642 5791 1
6316 5644 5643 1
6317 5643 5650 1
6318 5643 5792 1
6319 5645 5644 1
6320 5644 5647 1
6321 5644 5793 1
6322 5646 5645 1
6323 5645 5794 1
6324 5645 5795 1
6325 5648 5647 1
6326 5647 5654 1
6327 5647 5796 1
6328 5649 5648 1
6329 5648 5651 1
6330 5648 5797 1
6331 5650 5649 1
6332 5649 5798 1
6333 5649 5799 1
6334 5650 5800 1
6335 5650 5801 1
6336 5652 5651 1
6337 5653 5652 1
6338 5652 5658 1
6339 5652 5802 1
6340 5654 5653 1
6341 5653 5655 1
6342 5653 5803 1
6343 5654 5804 1
6344 5654 5805 1
6345 5656 5655 1
6346 5655 5665 2
6347 5657 5656 1
6348 5656 5662 1
6349 5658 5657 1
6350 5657 5659 1
6351 5658 5670 1
6352 5658 5806 1
6353 5660 5659 1
6354 5659 5672 1
6355 5661 5660 1
6356 5660 5669 1
6357 5662 5661 1
6358 5661 5666 1
6359 5662 5663 1
6360 5664 5663 1
6361 5663 5807 1
6362 5663 5808 1
6363 5665 5664 1
6364 5664 5809 1
6365 5664 5810 1
6366 5665 5811 1
6367 5667 5666 1
6368 5668 5667 1
6369 5667 5703 1
6370 5669 5668 1
6371 5668 5687 1
6372 5669 5685 1
6373 5671 5670 1
6374 5670 5676 2
6375 5672 5671 1
6376 5671 5673 1
6377 5671 5812 1
6378 5672 5686 1
6379 5674 5673 2
6380 5673 5680 1
6381 5675 5674 1
6382 5674 5677 1
6383 5676 5675 1
6384 5675 5813 1
6385 5675 5814 1
6386 5676 5815 1
6387 5678 5677 1
6388 5677 5816 1
6389 5677 5817 1
6390 5679 5678 1
6391 5678 5818 1
6392 5678 5819 1
6393 5680 5679 2
6394 5679 5684 1
6395 5680 5681 1
6396 5682 5681 1
6397 5681 5820 1
6398 5681 5821 1
6399 5683 5682 1
6400 5682 5757 1
6401 5682 5822 1
6402 5684 5683 1
6403 5683 5823 1
6404 5683 5824 1
6405 5684 5825 1
6406 5684 5826 1
6407 5686 5685 1
6408 5685 5689 1
6409 5686 5827 1
6410 5688 5687 1
6411 5687 5693 1
6412 5689 5688 1
6413 5688 5690 1
6414 5691 5690 1
6415 5690 5828 1
6416 5692 5691 1
6417 5691 5697 1
6418 5693 5692 1
6419 5692 5694 1
6420 5693 5702 1
6421 5695 5694 1
6422 5694 5704 1
6423 5696 5695 1
6424 5695 5701 1
6425 5697 5696 1
6426 5696 5698 1
6427 5697 5829 1
6428 5699 5698 1
6429 5698 5714 1
6430 5700 5699 1
6431 5699 5711 1
6432 5701 5700 1
6433 5700 5708 1
6434 5701 5706 1
6435 5703 5702 1
6436 5702 5705 1
6437 5703 5830 1
6438 5705 5704 1
6439 5704 5707 1
6440 5705 5723 1
6441 5707 5706 1
6442 5706 5710 1
6443 5707 5725 1
6444 5709 5708 1
6445 5708 5741 1
6446 5710 5709 1
6447 5709 5736 1
6448 5710 5734 1
6449 5712 5711 1
6450 5713 5712 1
6451 5712 5718 1
6452 5712 5831 1
6453 5714 5713 1
6454 5713 5715 1
6455 5713 5832 1
6456 5714 5760 1
6457 5714 5833 1
6458 5716 5715 1
6459 5715 5834 1
6460 5715 5835 1
6461 5717 5716 1
6462 5716 5836 1
6463 5716 5837 1
6464 5718 5717 1
6465 5717 5722 1
6466 5717 5838 1
6467 5718 5719 1
6468 5718 5839 1
6469 5720 5719 1
6470 5719 5840 1
6471 5719 5841 1
6472 5721 5720 1
6473 5720 5842 1
6474 5720 5843 1
6475 5722 5721 1
6476 5721 5844 1
6477 5721 5845 1
6478 5722 5846 1
6479 5724 5723 1
6480 5723 5729 1
6481 5725 5724 1
6482 5724 5726 1
6483 5725 5735 1
6484 5727 5726 1
6485 5728 5727 1
6486 5727 5733 1
6487 5727 5847 1
6488 5729 5728 1
6489 5728 5730 1
6490 5728 5848 1
6491 5731 5730 1
6492 5730 5849 1
6493 5730 5850 1
6494 5732 5731 1
6495 5731 5851 1
6496 5731 5852 1
6497 5733 5732 1
6498 5732 5853 1
6499 5732 5854 1
6500 5733 5855 1
6501 5733 5856 1
6502 5735 5734 1
6503 5734 5738 1
6504 5735 5857 1
6505 5737 5736 1
6506 5736 5739 1
6507 5738 5737 1
6508 5737 5742 1
6509 5738 5858 1
6510 5740 5739 1
6511 5739 5744 1
6512 5741 5740 1
6513 5740 5745 1
6514 5741 5859 1
6515 5743 5742 1
6516 5744 5743 1
6517 5743 5754 1
6518 5744 5747 1
6519 5746 5745 1
6520 5745 5751 1
6521 5745 5860 1
6522 5747 5746 1
6523 5746 5748 1
6524 5746 5861 1
6525 5747 5752 1
6526 5749 5748 1
6527 5748 5755 1
6528 5748 5862 1
6529 5750 5749 1
6530 5749 5863 1
6531 5749 5864 1
6532 5751 5750 1
6533 5750 5865 1
6534 5750 5866 1
6535 5751 5867 1
6536 5751 5868 1
6537 5753 5752 1
6538 5752 5756 1
6539 5754 5753 1
6540 5753 5764 1
6541 5754 5761 1
6542 5755 5756 1
6543 5755 5779 1
6544 5756 5775 1
6545 5757 5758 1
6546 5757 5759 1
6547 5757 5869 1
6548 5758 5870 1
6549 5758 5871 1
6550 5758 5872 1
6551 5759 5873 1
6552 5759 5874 1
6553 5759 5875 1
6554 5760 5876 1
6555 5762 5761 1
6556 5761 5877 1
6557 5763 5762 1
6558 5762 5878 1
6559 5764 5763 1
6560 5763 5768 1
6561 5764 5765 1
6562 5766 5765 1
6563 5765 5775 1
6564 5767 5766 1
6565 5766 5772 1
6566 5768 5767 1
6567 5767 5769 1
6568 5768 5879 1
6569 5770 5769 1
6570 5769 5880 1
6571 5771 5770 1
6572 5770 5881 1
6573 5772 5771 1
6574 5771 5778 1
6575 5772 5773 1
6576 5774 5773 1
6577 5773 5776 1
6578 5775 5774 1
6579 5774 5780 1
6580 5777 5776 1
6581 5776 5781 1
6582 5778 5777 1
6583 5777 5882 1
6584 5778 5883 1
6585 5780 5779 1
6586 5779 5884 1
6587 5780 5782 1
6588 5782 5781 1
6589 5781 5786 1
6590 5782 5783 1
6591 5784 5783 1
6592 5783 5885 1
6593 5783 5886 1
6594 5785 5784 1
6595 5784 5887 1
6596 5784 5888 1
6597 5786 5785 1
6598 5785 5889 1
6599 5785 5890 1
6600 5786 5787 2
6601 5891 5892 1
6602 5891 5896 1
6603 5891 6038 1
6604 5891 6039 1
6605 5893 5892 1
6606 5892 6040 1
6607 5892 6041 1
6608 5894 5893 1
6609 5893 5900 1
6610 5893 6042 1
6611 5895 5894 1
6612 5894 5897 1
6613 5894 6043 1
6614 5896 5895 1
6615 5895 6044 1
6616 5895 6045 1
6617 5898 5897 1
6618 5897 5904 1
6619 5897 6046 1
6620 5899 5898 1
6621 5898 5901 1
6622 5898 6047 1
6623 5900 5899 1
6624 5899 6048 1
6625 5899 6049 1
6626 5900 6050 1
6627 5900 6051 1
6628 5902 5901 1
6629 5903 5902 1
6630 5902 5908 1
6631 5902 6052 1
6632 5904 5903 1
6633 5903 5905 1
6634 5903 6053 1
6635 5904 6054 1
6636 5904 6055 1
6637 5906 5905 1
6638 5905 5915 2
6639 5907 5906 1
6640 5906 5912 1
6641 5908 5907 1
6642 5907 5909 1
6643 5908 5920 1
6644 5908 6056 1
6645 5910 5909 1
6646 5909 5922 1
6647 5911 5910 1
6648 5910 5919 1
6649 5912 5911 1
6650 5911 5916 1
6651 5912 5913 1
6652 5914 5913 1
6653 5913 6057 1
6654 5913 6058 1
6655 5915 5914 1
6656 5914 6059 1
6657 5914 6060 1
6658 5915 6061 1
6659 5917 5916 1
6660 5918 5917 1
6661 5917 5953 1
6662 5919 5918 1
6663 5918 5937 1
6664 5919 5935 1
6665 5921 5920 1
6666 5920 5926 2
6667 5922 5921 1
6668 5921 5923 1
6669 5921 6062 1
6670 5922 5936 1
6671 5924 5923 2
6672 5923 5930 1
6673 5925 5924 1
6674 5924 5927 1
6675 5926 5925 1
6676 5925 6063 1
6677 5925 6064 1
6678 5926 6065 1
6679 5928 5927 1
6680 5927 6066 1
6681 5927 6067 1
6682 5929 5928 1
6683 5928 6068 1
6684 5928 6069 1
6685 5930 5929 2
6686 5929 5934 1
6687 5930 5931 1
6688 5932 5931 1
6689 5931 6070 1
6690 5931 6071 1
6691 5933 5932 1
6692 5932 6007 1
6693 5932 6072 1
6694 5934 5933 1
6695 5933 6073 1
6696 5933 6074 1
6697 5934 6075 1
6698 5934 6076 1
6699 5936 5935 1
6700 5935 5939 1
6701 5936 6077 1
6702 5938 5937 1
6703 5937 5943 1
6704 5939 5938 1
6705 5938 5940 1
6706 5941 5940 1
6707 5940 6078 1
6708 5942 5941 1
6709 5941 5947 1
6710 5943 5942 1
6711 5942 5944 1
6712 5943 5952 1
6713 5945 5944 1
6714 5944 5954 1
6715 5946 5945 1
6716 5945 5951 1
6717 5947 5946 1
6718 5946 5948 1
6719 5947 6079 1
6720 5949 5948 1
6721 5948 5964 1
6722 5950 5949 1
6723 5949 5961 1
6724 5951 5950 1
6725 5950 5958 1
6726 5951 5956 1
6727 5953 5952 1
6728 5952 5955 1
6729 5953 6080 1
6730 5955 5954 1
6731 5954 5957 1
6732 5955 5973 1
6733 5957 5956 1
6734 5956 5960 1
6735 5957 5975 1
6736 5959 5958 1
6737 5958 5991 1
6738 5960 5959 1
6739 5959 5986 1
6740 5960 5984 1
6741 5962 5961 1
6742 5963 5962 1
6743 5962 5968 1
6744 5962 6081 1
6745 5964 5963 1
6746 5963 5965 1
6747 5963 6082 1
6748 5964 6010 1
6749 5964 6083 1
6750 5966 5965 1
6751 5965 6084 1
6752 5965 6085 1
6753 5967 5966 1
6754 5966 6086 1
6755 5966 6087 1
6756 5968 5967 1
6757 5967 5972 1
6758 5967 6088 1
6759 5968 5969 1
6760 5968 6089 1
6761 5970 5969 1
6762 5969 6090 1
6763 5969 6091 1
6764 5971 5970 1
6765 5970 6092 1
6766 5970 6093 1
6767 5972 5971 1
6768 5971 6094 1
6769 5971 6095 1
6770 5972 6096 1
6771 5974 5973 1
6772 5973 5979 1
6773 5975 5974 1
6774 5974 5976 1
6775 5975 5985 1
6776 5977 5976 1
6777 5978 5977 1
6778 5977 5983 1
6779 5977 6097 1
6780 5979 5978 1
6781 5978 5980 1
6782 5978 6098 1
6783 5981 5980 1
6784 5980 6099 1
6785 5980 6100 1
6786 5982 5981 1
6787 5981 6101 1
6788 5981 6102 1
6789 5983 5982 1
6790 5982 6103 1
6791 5982 6104 1
6792 5983 6105 1
6793 5983 6106 1
6794 5985 5984 1
6795 5984 5988 1
6796 5985 6107 1
6797 5987 5986 1
6798 5986 5989 1
6799 5988 5987 1
6800 5987 5992 1
6801 5988 6108 1
6802 5990 5989 1
6803 5989 5994 1
6804 5991 5990 1
6805 5990 5995 1
6806 5991 6109 1
6807 5993 5992 1
6808 5994 5993 1
6809 5993 6004 1
6810 5994 5997 1
6811 5996 5995 1
6812 5995 6001 1
6813 5995 6110 1
6814 5997 5996 1
6815 5996 5998 1
6816 5996 6111 1
6817 5997 6002 1
6818 5999 5998 1
6819 5998 6005 1
6820 5998 6112 1
6821 6000 5999 1
6822 5999 6113 1
6823 5999 6114 1
6824 6001 6000 1
6825 6000 6115 1
6826 6000 6116 1
6827 6001 6117 1
6828 6001 6118 1
6829 6003 6002 1
6830 6002 6006 1
6831 6004 6003 1
6832 6003 6014 1
6833 6004 6011 1
6834 6005 6006 1
6835 6005 6029 1
6836 6006 6025 1
6837 6007 6008 1
6838 6007 6009 1
6839 6007 6119 1
6840 6008 6120 1
6841 6008 6121 1
6842 6008 6122 1
6843 6009 6123 1
6844 6009 6124 1
6845 6009 6125 1
6846 6010 6126 1
6847 6012 6011 1
6848 6011 6127 1
6849 6013 6012 1
6850 6012 6128 1
6851 6014 6013 1
6852 6013 6018 1
6853 6014 6015 1
6854 6016 6015 1
6855 6015 6025 1
6856 6017 6016 1
6857 6016 6022 1
6858 6018 6017 1
6859 6017 6019 1
6860 6018 6129 1
6861 6020 6019 1
6862 6019 6130 1
6863 6021 6020 1
6864 6020 6131 1
6865 6022 6021 1
6866 6021 6028 1
6867 6022 6023 1
6868 6024 6023 1
6869 6023 6026 1
6870 6025 6024 1
6871 6024 6030 1
6872 6027 6026 1
6873 6026 6031 1
6874 6028 6027 1
6875 6027 6132 1
6876 6028 6133 1
6877 6030 6029 1
6878 6029 6134 1
6879 6030 6032 1
6880 6032 6031 1
6881 6031 6036 1
6882 6032 6033 1
6883 6034 6033 1
6884 6033 6135 1
6885 6033 6136 1
6886 6035 6034 1
6887 6034 6137 1
6888 6034 6138 1
6889 6036 6035 1
6890 6035 6139 1
6891 6035 6140 1
6892 6036 6037 2
6893 6141 6142 1
6894 6141 6146 1
6895 6141 6288 1
6896 6141 6289 1
6897 6143 6142 1
6898 6142 6290 1
6899 6142 6291 1
6900 6144 6143 1
6901 6143 6150 1
6902 6143 6292 1
6903 6145 6144 1
6904 6144 6147 1
6905 6144 6293 1
6906 6146 6145 1
6907 6145 6294 1
6908 6145 6295 1
6909 6148 6147 1
6910 6147 6154 1
6911 6147 6296 1
6912 6149 6148 1
6913 6148 6151 1
6914 6148 6297 1
6915 6150 6149 1
6916 6149 6298 1
6917 6149 6299 1
6918 6150 6300 1
6919 6150 6301 1
6920 6152 6151 1
6921 6153 6152 1
6922 6152 6158 1
6923 6152 6302 1
6924 6154 6153 1
6925 6153 6155 1
6926 6153 6303 1
6927 6154 6304 1
6928 6154 6305 1
6929 6156 6155 1
6930 6155 6165 2
6931 6157 6156 1
6932 6156 6162 1
6933 6158 6157 1
6934 6157 6159 1
6935 6158 6170 1
6936 6158 6306 1
6937 6160 6159 1
6938 6159 6172 1
6939 6161 6160 1
6940 6160 6169 1
6941 6162 6161 1
6942 6161 6166 1
6943 6162 6163 1
6944 6164 6163 1
6945 6163 6307 1
6946 6163 6308 1
6947 6165 6164 1
6948 6164 6309 1
6949 6164 6310 1
6950 6165 6311 1
6951 6167 6166 1
6952 6168 6167 1
6953 6167 6203 1
6954 6169 6168 1
6955 6168 6187 1
6956 6169 6185 1
6957 6171 6170 1
6958 6170 6176 2
6959 6172 6171 1
6960 6171 6173 1
6961 6171 6312 1
6962 6172 6186 1
6963 6174 6173 2
6964 6173 6180 1
6965 6175 6174 1
6966 6174 6177 1
6967 6176 6175 1
6968 6175 6313 1
6969 6175 6314 1
6970 6176 6315 1
6971 6178 6177 1
6972 6177 6316 1
6973 6177 6317 1
6974 6179 6178 1
6975 6178 6318 1
6976 6178 6319 1
6977 6180 6179 2
6978 6179 6184 1
6979 6180 6181 1
6980 6182 6181 1
6981 6181 6320 1
6982 6181 6321 1
6983 6183 6182 1
6984 6182 6257 1
6985 6182 6322 1
6986 6184 6183 1
6987 6183 6323 1
6988 6183 6324 1
6989 6184 6325 1
6990 6184 6326 1
6991 6186 6185 1
6992 6185 6189 1
6993 6186 6327 1
6994 6188 6187 1
6995 6187 6193 1
6996 6189 6188 1
6997 6188 6190 1
6998 6191 6190 1
6999 6190 6328 1
7000 6192 6191 1
7001 6191 6197 1
7002 6193 6192 1
7003 6192 6194 1
7004 6193 6202 1
7005 6195 6194 1
7006 6194 6204 1
7007 6196 6195 1
7008 6195 6201 1
7009 6197 6196 1
7010 6196 6198 1
7011 6197 6329 1
7012 6199 6198 1
7013 6198 6214 1
7014 6200 6199 1
7015 6199 6211 1
7016 6201 6200 1
7017 6200 6208 1
7018 6201 6206 1
7019 6203 6202 1
7020 6202 6205 1
7021 6203 6330 1
7022 6205 6204 1
7023 6204 6207 1
7024 6205 6223 1
7025 6207 6206 1
7026 6206 6210 1
7027 6207 6225 1
7028 6209 6208 1
7029 6208 6241 1
7030 6210 6209 1
7031 6209 6236 1
7032 6210 6234 1
7033 6212 6211 1
7034 6213 6212 1
7035 6212 6218 1
7036 6212 6331 1
7037 6214 6213 1
7038 6213 6215 1
7039 6213 6332 1
7040 6214 6260 1
7041 6214 6333 1
7042 6216 6215 1
7043 6215 6334 1
7044 6215 6335 1
7045 6217 6216 1
7046 6216 6336 1
7047 6216 6337 1
7048 6218 6217 1
7049 6217 6222 1
7050 6217 6338 1
7051 6218 6219 1
7052 6218 6339 1
7053 6220 6219 1
7054 6219 6340 1
7055 6219 6341 1
7056 6221 6220 1
7057 6220 6342 1
7058 6220 6343 1
7059 6222 6221 1
7060 6221 6344 1
7061 6221 6345 1
7062 6222 6346 1
7063 6224 6223 1
7064 6223 6229 1
7065 6225 6224 1
7066 6224 6226 1
7067 6225 6235 1
7068 6227 6226 1
7069 6228 6227 1
7070 6227 6233 1
7071 6227 6347 1
7072 6229 6228 1
7073 6228 6230 1
7074 6228 6348 1
7075 6231 6230 1
7076 6230 6349 1
7077 6230 6350 1
7078 6232 6231 1
7079 6231 6351 1
7080 6231 6352 1
7081 6233 6232 1
7082 6232 6353 1
7083 6232 6354 1
7084 6233 6355 1
7085 6233 6356 1
7086 6235 6234 1
7087 6234 6238 1
7088 6235 6357 1
7089 6237 6236 1
7090 6236 6239 1
7091 6238 6237 1
7092 6237 6242 1
7093 6238 6358 1
7094 6240 6239 1
7095 6239 6244 1
7096 6241 6240 1
7097 6240 6245 1
7098 6241 6359 1
7099 6243 6242 1
7100 6244 6243 1
7101 6243 6254 1
7102 6244 6247 1
7103 6246 6245 1
7104 6245 6251 1
7105 6245 6360 1
7106 6247 6246 1
7107 6246 6248 1
7108 6246 6361 1
7109 6247 6252 1
7110 6249 6248 1
7111 6248 6255 1
7112 6248 6362 1
7113 6250 6249 1
7114 6249 6363 1
7115 6249 6364 1
7116 6251 6250 1
7117 6250 6365 1
7118 6250 6366 1
7119 6251 6367 1
7120 6251 6368 1
7121 6253 6252 1
7122 6252 6256 1
7123 6254 6253 1
7124 6253 6264 1
7125 6254 6261 1
7126 6255 6256 1
7127 6255 6279 1
7128 6256 6275 1
7129 6257 6258 1
7130 6257 6259 1
7131 6257 6369 1
7132 6258 6370 1
7133 6258 6371 1
7134 6258 6372 1
7135 6259 6373 1
7136 6259 6374 1
7137 6259 6375 1
7138 6260 6376 1
7139 6262 6261 1
7140 6261 6377 1
7141 6263 6262 1
7142 6262 6378 1
7143 6264 6263 1
7144 6263 6268 1
7145 6264 6265 1
7146 6266 6265 1
7147 6265 6275 1
7148 6267 6266 1
7149 6266 6272 1
7150 6268 6267 1
7151 6267 6269 1
7152 6268 6379 1
7153 6270 6269 1
7154 6269 6380 1
7155 6271 6270 1
7156 6270 6381 1
7157 6272 6271 1
7158 6271 6278 1
7159 6272 6273 1
7160 6274 6273 1
7161 6273 6276 1
7162 6275 6274 1
7163 6274 6280 1
7164 6277 6276 1
7165 6276 6281 1
7166 6278 6277 1
7167 6277 6382 1
7168 6278 6383 1
7169 6280 6279 1
7170 6279 6384 1
7171 6280 6282 1
7172 6282 6281 1
7173 6281 6286 1
7174 6282 6283 1
7175 6284 6283 1
7176 6283 6385 1
7177 6283 6386 1
7178 6285 6284 1
7179 6284 6387 1
7180 6284 6388 1
7181 6286 6285 1
7182 6285 6389 1
7183 6285 6390 1
7184 6286 6287 2
7185 6391 6392 1
7186 6391 6396 1
7187 6391 6538 1
7188 6391 6539 1
7189 6393 6392 1
7190 6392 6540 1
7191 6392 6541 1
7192 6394 6393 1
7193 6393 6400 1
7194 6393 6542 1
7195 6395 6394 1
7196 6394 6397 1
7197 6394 6543 1
7198 6396 6395 1
7199 6395 6544 1
7200 6395 6545 1
7201 6398 6397 1
7202 6397 6404 1
7203 6397 6546 1
7204 6399 6398 1
7205 6398 6401 1
7206 6398 6547 1
7207 6400 6399 1
7208 6399 6548 1
7209 6399 6549 1
7210 6400 6550 1
7211 6400 6551 1
7212 6402 6401 1
7213 6403 6402 1
7214 6402 6408 1
7215 6402 6552 1
7216 6404 6403 1
7217 6403 6405 1
7218 6403 6553 1
7219 6404 6554 1
7220 6404 6555 1
7221 6406 6405 1
7222 6405 6415 2
7223 6407 6406 1
7224 6406 6412 1
7225 6408 6407 1
7226 6407 6409 1
7227 6408 6420 1
7228 6408 6556 1
7229 6410 6409 1
7230 6409 6422 1
7231 6411 6410 1
7232 6410 6419 1
7233 6412 6411 1
7234 6411 6416 1
7235 6412 6413 1
7236 6414 6413 1
7237 6413 6557 1
7238 6413 6558 1
7239 6415 6414 1
7240 6414 6559 1
7241 6414 6560 1
7242 6415 6561 1
7243 6417 6416 1
7244 6418 6417 1
7245 6417 6453 1
7246 6419 6418 1
7247 6418 6437 1
7248 6419 6435 1
7249 6421 6420 1
7250 6420 6426 2
7251 6422 6421 1
7252 6421 6423 1
7253 6421 6562 1
7254 6422 6436 1
7255 6424 6423 2
7256 6423 6430 1
7257 6425 6424 1
7258 6424 6427 1
7259 6426 6425 1
7260 6425 6563 1
7261 6425 6564 1
7262 6426 6565 1
7263 6428 6427 1
7264 6427 6566 1
7265 6427 6567 1
7266 6429 6428 1
7267 6428 6568 1
7268 6428 6569 1
7269 6430 6429 2
7270 6429 6434 1
7271 6430 6431 1
7272 6432 6431 1
7273 6431 6570 1
7274 6431 6571 1
7275 6433 6432 1
7276 6432 6507 1
7277 6432 6572 1
7278 6434 6433 1
7279 6433 6573 1
7280 6433 6574 1
7281 6434 6575 1
7282 6434 6576 1
7283 6436 6435 1
7284 6435 6439 1
7285 6436 6577 1
7286 6438 6437 1
7287 6437 6443 1
7288 6439 6438 1
7289 6438 6440 1
7290 6441 6440 1
7291 6440 6578 1
7292 6442 6441 1
7293 6441 6447 1
7294 6443 6442 1
7295 6442 6444 1
7296 6443 6452 1
7297 6445 6444 1
7298 6444 6454 1
7299 6446 6445 1
7300 6445 6451 1
7301 6447 6446 1
7302 6446 6448 1
7303 6447 6579 1
7304 6449 6448 1
7305 6448 6464 1
7306 6450 6449 1
7307 6449 6461 1
7308 6451 6450 1
7309 6450 6458 1
7310 6451 6456 1
7311 6453 6452 1
7312 6452 6455 1
7313 6453 6580 1
7314 6455 6454 1
7315 6454 6457 1
7316 6455 6473 1
7317 6457 6456 1
7318 6456 6460 1
7319 6457 6475 1
7320 6459 6458 1
7321 6458 6491 1
7322 6460 6459 1
7323 6459 6486 1
7324 6460 6484 1
7325 6462 6461 1
7326 6463 6462 1
7327 6462 6468 1
7328 6462 6581 1
7329 6464 6463 1
7330 6463 6465 1
7331 6463 6582 1
7332 6464 6510 1
7333 6464 6583 1
7334 6466 6465 1
7335 6465 6584 1
7336 6465 6585 1
7337 6467 6466 1
7338 6466 6586 1
7339 6466 6587 1
7340 6468 6467 1
7341 6467 6472 1
7342 6467 6588 1
7343 6468 6469 1
7344 6468 6589 1
7345 6470 6469 1
7346 6469 6590 1
7347 6469 6591 1
7348 6471 6470 1
7349 6470 6592 1
7350 6470 6593 1
7351 6472 6471 1
7352 6471 6594 1
7353 6471 6595 1
7354 6472 6596 1
7355 6474 6473 1
7356 6473 6479 1
7357 6475 6474 1
7358 6474 6476 1
7359 6475 6485 1
7360 6477 6476 1
7361 6478 6477 1
7362 6477 6483 1
7363 6477 6597 1
7364 6479 6478 1
7365 6478 6480 1
7366 6478 6598 1
7367 6481 6480 1
7368 6480 6599 1
7369 6480 6600 1
7370 6482 6481 1
7371 6481 6601 1
7372 6481 6602 1
7373 6483 6482 1
7374 6482 6603 1
7375 6482 6604 1
7376 6483 6605 1
7377 6483 6606 1
7378 6485 6484 1
7379 6484 6488 1
7380 6485 6607 1
7381 6487 6486 1
7382 6486 6489 1
7383 6488 6487 1
7384 6487 6492 1
7385 6488 6608 1
7386 6490 6489 1
7387 6489 6494 1
7388 6491 6490 1
7389 6490 6495 1
7390 6491 6609 1
7391 6493 6492 1
7392 6494 6493 1
7393 6493 6504 1
7394 6494 6497 1
7395 6496 6495 1
7396 6495 6501 1
7397 6495 6610 1
7398 6497 6496 1
7399 6496 6498 1
7400 6496 6611 1
7401 6497 6502 1
7402 6499 6498 1
7403 6498 6505 1
7404 6498 6612 1
7405 6500 6499 1
7406 6499 6613 1
7407 6499 6614 1
7408 6501 6500 1
7409 6500 6615 1
7410 6500 6616 1
7411 6501 6617 1
7412 6501 6618 1
7413 6503 6502 1
7414 6502 6506 1
7415 6504 6503 1
7416 6503 6514 1
7417 6504 6511 1
7418 6505 6506 1
7419 6505 6529 1
7420 6506 6525 1
7421 6507 6508 1
7422 6507 6509 1
7423 6507 6619 1
7424 6508 6620 1
7425 6508 6621 1
7426 6508 6622 1
7427 6509 6623 1
7428 6509 6624 1
7429 6509 6625 1
7430 6510 6626 1
7431 6512 6511 1
7432 6511 6627 1
7433 6513 6512 1
7434 6512 6628 1
7435 6514 6513 1
7436 6513 6518 1
7437 6514 6515 1
7438 6516 6515 1
7439 6515 6525 1
7440 6517 6516 1
7441 6516 6522 1
7442 6518 6517 1
7443 6517 6519 1
7444 6518 6629 1
7445 6520 6519 1
7446 6519 6630 1
7447 6521 6520 1
7448 6520 6631 1
7449 6522 6521 1
7450 6521 6528 1
7451 6522 6523 1
7452 6524 6523 1
7453 6523 6526 1
7454 6525 6524 1
7455 6524 6530 1
7456 6527 6526 1
7457 6526 6531 1
7458 6528 6527 1
7459 6527 6632 1
7460 6528 6633 1
7461 6530 6529 1
7462 6529 6634 1
7463 6530 6532 1
7464 6532 6531 1
7465 6531 6536 1
7466 6532 6533 1
7467 6534 6533 1
7468 6533 6635 1
7469 6533 6636 1
7470 6535 6534 1
7471 6534 6637 1
7472 6534 6638 1
7473 6536 6535 1
7474 6535 6639 1
7475 6535 6640 1
7476 6536 6537 2
7477 6641 6642 1
7478 6641 6646 1
7479 6641 6788 1
7480 6641 6789 1
7481 6643 6642 1
7482 6642 6790 1
7483 6642 6791 1
7484 6644 6643 1
7485 6643 6650 1
7486 6643 6792 1
7487 6645 6644 1
7488 6644 6647 1
7489 6644 6793 1
7490 6646 6645 1
7491 6645 6794 1
7492 6645 6795 1
7493 6648 6647 1
7494 6647 6654 1
7495 6647 6796 1
7496 6649 6648 1
7497 6648 6651 1
7498 6648 6797 1
7499 6650 6649 1
7500 6649 6798 1
7501 6649 6799 1
7502 6650 6800 1
7503 6650 6801 1
7504 6652 6651 1
7505 6653 6652 1
7506 6652 6658 1
7507 6652 6802 1
7508 6654 6653 1
7509 6653 6655 1
7510 6653 6803 1
7511 6654 6804 1
7512 6654 6805 1
7513 6656 6655 1
7514 6655 6665 2
7515 6657 6656 1
7516 6656 6662 1
7517 6658 6657 1
7518 6657 6659 1
7519 6658 6670 1
7520 6658 6806 1
7521 6660 6659 1
7522 6659 6672 1
7523 6661 6660 1
7524 6660 6669 1
7525 6662 6661 1
7526 6661 6666 1
7527 6662 6663 1
7528 6664 6663 1
7529 6663 6807 1
7530 6663 6808 1
7531 6665 6664 1
7532 6664 6809 1
7533 6664 6810 1
7534 6665 6811 1
7535 6667 6666 1
7536 6668 6667 1
7537 6667 6703 1
7538 6669 6668 1
7539 6668 6687 1
7540 6669 6685 1
7541 6671 6670 1
7542 6670 6676 2
7543 6672 6671 1
7544 6671 6673 1
7545 6671 6812 1
7546 6672 6686 1
7547 6674 6673 2
7548 6673 6680 1
7549 6675 6674 1
7550 6674 6677 1
7551 6676 6675 1
7552 6675 6813 1
7553 6675 6814 1
7554 6676 6815 1
7555 6678 6677 1
7556 6677 6816 1
7557 6677 6817 1
7558 6679 6678 1
7559 6678 6818 1
7560 6678 6819 1
7561 6680 6679 2
7562 6679 6684 1
7563 6680 6681 1
7564 6682 6681 1
7565 6681 6820 1
7566 6681 6821 1
7567 6683 6682 1
7568 6682 6757 1
7569 6682 6822 1
7570 6684 6683 1
7571 6683 6823 1
7572 6683 6824 1
7573 6684 6825 1
7574 6684 6826 1
7575 6686 6685 1
7576 6685 6689 1
7577 6686 6827 1
7578 6688 6687 1
7579 6687 6693 1
7580 6689 6688 1
7581 6688 6690 1
7582 6691 6690 1
7583 6690 6828 1
7584 6692 6691 1
7585 6691 6697 1
7586 6693 6692 1
7587 6692 6694 1
7588 6693 6702 1
7589 6695 6694 1
7590 6694 6704 1
7591 6696 6695 1
7592 6695 6701 1
7593 6697 6696 1
7594 6696 6698 1
7595 6697 6829 1
7596 6699 6698 1
7597 6698 6714 1
7598 6700 6699 1
7599 6699 6711 1
7600 6701 6700 1
7601 6700 6708 1
7602 6701 6706 1
7603 6703 6702 1
7604 6702 6705 1
7605 6703 6830 1
7606 6705 6704 1
7607 6704 6707 1
7608 6705 6723 1
7609 6707 6706 1
7610 6706 6710 1
7611 6707 6725 1
7612 6709 6708 1
7613 6708 6741 1
7614 6710 6709 1
7615 6709 6736 1
7616 6710 6734 1
7617 6712 6711 1
7618 6713 6712 1
7619 6712 6718 1
7620 6712 6831 1
7621 6714 6713 1
7622 6713 6715 1
7623 6713 6832 1
7624 6714 6760 1
7625 6714 6833 1
7626 6716 6715 1
7627 6715 6834 1
7628 6715 6835 1
7629 6717 6716 1
7630 6716 6836 1
7631 6716 6837 1
7632 6718 6717 1
7633 6717 6722 1
7634 6717 6838 1
7635 6718 6719 1
7636 6718 6839 1
7637 6720 6719 1
7638 6719 6840 1
7639 6719 6841 1
7640 6721 6720 1
7641 6720 6842 1
7642 6720 6843 1
7643 6722 6721 1
7644 6721 6844 1
7645 6721 6845 1
7646 6722 6846 1
7647 6724 6723 1
7648 6723 6729 1
7649 6725 6724 1
7650 6724 6726 1
7651 6725 6735 1
7652 6727 6726 1
7653 6728 6727 1
7654 6727 6733 1
7655 6727 6847 1
7656 6729 6728 1
7657 6728 6730 1
7658 6728 6848 1
7659 6731 6730 1
7660 6730 6849 1
7661 6730 6850 1
7662 6732 6731 1
7663 6731 6851 1
7664 6731 6852 1
7665 6733 6732 1
7666 6732 6853 1
7667 6732 6854 1
7668 6733 6855 1
7669 6733 6856 1
7670 6735 6734 1
7671 6734 6738 1
7672 6735 6857 1
7673 6737 6736 1
7674 6736 6739 1
7675 6738 6737 1
7676 6737 6742 1
7677 6738 6858 1
7678 6740 6739 1
7679 6739 6744 1
7680 6741 6740 1
7681 6740 6745 1
7682 6741 6859 1
7683 6743 6742 1
7684 6744 6743 1
7685 6743 6754 1
7686 6744 6747 1
7687 6746 6745 1
7688 6745 6751 1
7689 6745 6860 1
7690 6747 6746 1
7691 6746 6748 1
7692 6746 6861 1
7693 6747 6752 1
7694 6749 6748 1
7695 6748 6755 1
7696 6748 6862 1
7697 6750 6749 1
7698 6749 6863 1
7699 6749 6864 1
7700 6751 6750 1
7701 6750 6865 1
7702 6750 6866 1
7703 6751 6867 1
7704 6751 6868 1
7705 6753 6752 1
7706 6752 6756 1
7707 6754 6753 1
7708 6753 6764 1
7709 6754 6761 1
7710 6755 6756 1
7711 6755 6779 1
7712 6756 6775 1
7713 6757 6758 1
7714 6757 6759 1
7715 6757 6869 1
7716 6758 6870 1
7717 6758 6871 1
7718 6758 6872 1
7719 6759 6873 1
7720 6759 6874 1
7721 6759 6875 1
7722 6760 6876 1
7723 6762 6761 1
7724 6761 6877 1
7725 6763 6762 1
7726 6762 6878 1
7727 6764 6763 1
7728 6763 6768 1
7729 6764 6765 1
7730 6766 6765 1
7731 6765 6775 1
7732 6767 6766 1
7733 6766 6772 1
7734 6768 6767 1
7735 6767 6769 1
7736 6768 6879 1
7737 6770 6769 1
7738 6769 6880 1
7739 6771 6770 1
7740 6770 6881 1
7741 6772 6771 1
7742 6771 6778 1
7743 6772 6773 1
7744 6774 6773 1
7745 6773 6776 1
7746 6775 6774 1
7747 6774 6780 1
7748 6777 6776 1
7749 6776 6781 1
7750 6778 6777 1
7751 6777 6882 1
7752 6778 6883 1
7753 6780 6779 1
7754 6779 6884 1
7755 6780 6782 1
7756 6782 6781 1
7757 6781 6786 1
7758 6782 6783 1
7759 6784 6783 1
7760 6783 6885 1
7761 6783 6886 1
7762 6785 6784 1
7763 6784 6887 1
7764 6784 6888 1
7765 6786 6785 1
7766 6785 6889 1
7767 6785 6890 1
7768 6786 6787 2
7769 6891 6892 1
7770 6891 6896 1
7771 6891 7038 1
7772 6891 7039 1
7773 6893 6892 1
7774 6892 7040 1
7775 6892 7041 1
7776 6894 6893 1
7777 6893 6900 1
7778 6893 7042 1
7779 6895 6894 1
7780 6894 6897 1
7781 6894 7043 1
7782 6896 6895 1
7783 6895 7044 1
7784 6895 7045 1
7785 6898 6897 1
7786 6897 6904 1
7787 6897 7046 1
7788 6899 6898 1
7789 6898 6901 1
7790 6898 7047 1
7791 6900 6899 1
7792 6899 7048 1
7793 6899 7049 1
7794 6900 7050 1
7795 6900 7051 1
7796 6902 6901 1
7797 6903 6902 1
7798 6902 6908 1
7799 6902 7052 1
7800 6904 6903 1
7801 6903 6905 1
7802 6903 7053 1
7803 6904 7054 1
7804 6904 7055 1
7805 6906 6905 1
7806 6905 6915 2
7807 6907 6906 1
7808 6906 6912 1
7809 6908 6907 1
7810 6907 6909 1
7811 6908 6920 1
7812 6908 7056 1
7813 6910 6909 1
7814 6909 6922 1
7815 6911 6910 1
7816 6910 6919 1
7817 6912 6911 1
7818 6911 6916 1
7819 6912 6913 1
7820 6914 6913 1
7821 6913 7057 1
7822 6913 7058 1
7823 6915 6914 1
7824 6914 7059 1
7825 6914 7060 1
7826 6915 7061 1
7827 6917 6916 1
7828 6918 6917 1
7829 6917 6953 1
7830 6919 6918 1
7831 6918 6937 1
7832 6919 6935 1
7833 6921 6920 1
7834 6920 6926 2
7835 6922 6921 1
7836 6921 6923 1
7837 6921 7062 1
7838 6922 6936 1
7839 6924 6923 2
7840 6923 6930 1
7841 6925 6924 1
7842 6924 6927 1
7843 6926 6925 1
7844 6925 7063 1
7845 6925 7064 1
7846 6926 7065 1
7847 6928 6927 1
7848 6927 7066 1
7849 6927 7067 1
7850 6929 6928 1
7851 6928 7068 1
7852 6928 7069 1
7853 6930 6929 2
7854 6929 6934 1
7855 6930 6931 1
7856 6932 6931 1
7857 6931 7070 1
7858 6931 7071 1
7859 6933 6932 1
7860 6932 7007 1
7861 6932 7072 1
7862 6934 6933 1
7863 6933 7073 1
7864 6933 7074 1
7865 6934 7075 1
7866 6934 7076 1
7867 6936 6935 1
7868 6935 6939 1
7869 6936 7077 1
7870 6938 6937 1
7871 6937 6943 1
7872 6939 6938 1
7873 6938 6940 1
7874 6941 6940 1
7875 6940 7078 1
7876 6942 6941 1
7877 6941 6947 1
7878 6943 6942 1
7879 6942 6944 1
7880 6943 6952 1
7881 6945 6944 1
7882 6944 6954 1
7883 6946 6945 1
7884 6945 6951 1
7885 6947 6946 1
7886 6946 6948 1
7887 6947 7079 1
7888 6949 6948 1
7889 6948 6964 1
7890 6950 6949 1
7891 6949 6961 1
7892 6951 6950 1
7893 6950 6958 1
7894 6951 6956 1
7895 6953 6952 1
7896 6952 6955 1
7897 6953 7080 1
7898 6955 6954 1
7899 6954 6957 1
7900 6955 6973 1
7901 6957 6956 1
7902 6956 6960 1
7903 6957 6975 1
7904 6959 6958 1
7905 6958 6991 1
7906 6960 6959 1
7907 6959 6986 1
7908 6960 6984 1
7909 6962 6961 1
7910 6963 6962 1
7911 6962 6968 1
7912 6962 7081 1
7913 6964 6963 1
7914 6963 6965 1
7915 6963 7082 1
7916 6964 7010 1
7917 6964 7083 1
7918 6966 6965 1
7919 6965 7084 1
7920 6965 7085 1
7921 6967 6966 1
7922 6966 7086 1
7923 6966 7087 1
7924 6968 6967 1
7925 6967 6972 1
7926 6967 7088 1
7927 6968 6969 1
7928 6968 7089 1
7929 6970 6969 1
7930 6969 7090 1
7931 6969 7091 1
7932 6971 6970 1
7933 6970 7092 1
7934 6970 7093 1
7935 6972 6971 1
7936 6971 7094 1
7937 6971 7095 1
7938 6972 7096 1
7939 6974 6973 1
7940 6973 6979 1
7941 6975 6974 1
7942 6974 6976 1
7943 6975 6985 1
7944 6977 6976 1
7945 6978 6977 1
7946 6977 6983 1
7947 6977 7097 1
7948 6979 6978 1
7949 6978 6980 1
7950 6978 7098 1
7951 6981 6980 1
7952 6980 7099 1
7953 6980 7100 1
7954 6982 6981 1
7955 6981 7101 1
7956 6981 7102 1
7957 6983 6982 1
7958 6982 7103 1
7959 6982 7104 1
7960 6983 7105 1
7961 6983 7106 1
7962 6985 6984 1
7963 6984 6988 1
7964 6985 7107 1
7965 6987 6986 1
7966 6986 6989 1
7967 6988 6987 1
7968 6987 6992 1
7969 6988 7108 1
7970 6990 6989 1
7971 6989 6994 1
7972 6991 6990 1
7973 6990 6995 1
7974 6991 7109 1
7975 6993 6992 1
7976 6994 6993 1
7977 6993 7004 1
7978 6994 6997 1
7979 6996 6995 1
7980 6995 7001 1
7981 6995 7110 1
7982 6997 6996 1
7983 6996 6998 1
7984 6996 7111 1
7985 6997 7002 1
7986 6999 6998 1
7987 6998 7005 1
7988 6998 7112 1
7989 7000 6999 1
7990 6999 7113 1
7991 6999 7114 1
7992 7001 7000 1
7993 7000 7115 1
7994 7000 7116 1
7995 7001 7117 1
7996 7001 7118 1
7997 7003 7002 1
7998 7002 7006 1
7999 7004 7003 1
8000 7003 7014 1
8001 7004 7011 1
8002 7005 7006 1
8003 7005 7029 1
8004 7006 7025 1
8005 7007 7008 1
8006 7007 7009 1
8007 7007 7119 1
8008 7008 7120 1
8009 7008 7121 1
8010 7008 7122 1
8011 7009 7123 1
8012 7009 7124 1
8013 7009 7125 1
8014 7010 7126 1
8015 7012 7011 1
8016 7011 7127 1
8017 7013 7012 1
8018 7012 7128 1
8019 7014 7013 1
8020 7013 7018 1
8021 7014 7015 1
8022 7016 7015 1
8023 7015 7025 1
8024 7017 7016 1
8025 7016 7022 1
8026 7018 7017 1
8027 7017 7019 1
8028 7018 7129 1
8029 7020 7019 1
8030 7019 7130 1
8031 7021 7020 1
8032 7020 7131 1
8033 7022 7021 1
8034 7021 7028 1
8035 7022 7023 1
8036 7024 7023 1
8037 7023 7026 1
8038 7025 7024 1
8039 7024 7030 1
8040 7027 7026 1
8041 7026 7031 1
8042 7028 7027 1
8043 7027 7132 1
8044 7028 7133 1
8045 7030 7029 1
8046 7029 7134 1
8047 7030 7032 1
8048 7032 7031 1
8049 7031 7036 1
8050 7032 7033 1
8051 7034 7033 1
8052 7033 7135 1
8053 7033 7136 1
8054 7035 7034 1
8055 7034 7137 1
8056 7034 7138 1
8057 7036 7035 1
8058 7035 7139 1
8059 7035 7140 1
8060 7036 7037 2
8061 7141 7142 un
8062 7141 7146 un
8063 7141 7196 1
8064 7143 7142 un
8065 7142 7198 1
8066 7144 7143 un
8067 7143 7150 1
8068 7145 7144 un
8069 7144 7147 1
8070 7146 7145 un
8071 7145 7197 1
8072 7146 7194 1
8073 7148 7147 1
8074 7147 7210 1
8075 7147 7211 1
8076 7149 7148 un
8077 7148 7154 un
8078 7150 7149 1
8079 7149 7151 un
8080 7150 7212 1
8081 7150 7213 1
8082 7152 7151 un
8083 7151 7199 1
8084 7153 7152 un
8085 7152 7200 1
8086 7154 7153 un
8087 7153 7158 un
8088 7154 7155 un
8089 7156 7155 un
8090 7155 7214 1
8091 7157 7156 un
8092 7156 7162 un
8093 7158 7157 un
8094 7157 7159 1
8095 7158 7201 1
8096 7160 7159 1
8097 7159 7166 1
8098 7161 7160 1
8099 7160 7163 1
8100 7162 7161 un
8101 7161 7170 un
8102 7162 7167 un
8103 7164 7163 1
8104 7163 7215 1
8105 7163 7216 1
8106 7165 7164 un
8107 7164 7203 1
8108 7164 7217 1
8109 7166 7165 1
8110 7165 7202 1
8111 7165 7218 1
8112 7166 7219 1
8113 7166 7220 1
8114 7168 7167 un
8115 7167 7205 1
8116 7169 7168 un
8117 7168 7174 1
8118 7170 7169 un
8119 7169 7171 1
8120 7170 7204 1
8121 7172 7171 1
8122 7171 7207 2
8123 7173 7172 un
8124 7172 7178 un
8125 7174 7173 1
8126 7173 7175 1
8127 7174 7206 2
8128 7176 7175 1
8129 7175 7221 1
8130 7175 7222 1
8131 7177 7176 1
8132 7176 7223 1
8133 7176 7224 1
8134 7178 7177 un
8135 7177 7182 un
8136 7178 7179 un
8137 7180 7179 un
8138 7181 7180 un
8139 7180 7189 un
8140 7182 7181 un
8141 7181 7186 1
8142 7182 7183 1
8143 7184 7183 1
8144 7183 7225 1
8145 7183 7226 1
8146 7185 7184 1
8147 7184 7227 1
8148 7184 7228 1
8149 7186 7185 1
8150 7185 7229 1
8151 7185 7230 1
8152 7186 7187 1
8153 7186 7231 1
8154 7188 7187 1
8155 7187 7232 1
8156 7187 7233 1
8157 7189 7188 un
8158 7188 7193 un
8159 7189 7190 un
8160 7191 7190 un
8161 7190 7234 1
8162 7192 7191 un
8163 7191 7235 1
8164 7193 7192 un
8165 7192 7209 1
8166 7193 7208 1
8167 7194 7195 1
8168 7194 7236 1
8169 7194 7237 1
8170 7195 7238 1
8171 7195 7239 1
8172 7195 7240 1
8173 7196 7241 1
8174 7196 7242 1
8175 7196 7243 1
8176 7197 7244 1
8177 7197 7245 1
8178 7197 7246 1
8179 7198 7247 1
8180 7198 7248 1
8181 7198 7249 1
8182 7199 7250 1
8183 7199 7251 1
8184 7199 7252 1
8185 7200 7253 1
8186 7200 7254 1
8187 7200 7255 1
8188 7201 7256 1
8189 7202 7257 1
8190 7202 7258 1
8191 7202 7259 1
8192 7203 7260 1
8193 7203 7261 1
8194 7203 7262 1
8195 7204 7263 1
8196 7205 7264 1
8197 7208 7265 1
8198 7208 7266 1
8199 7208 7267 1
8200 7209 7268 1
8201 7209 7269 1
8202 7209 7270 1
8203 7271 7272 un
8204 7271 7276 un
8205 7271 7326 1
8206 7273 7272 un
8207 7272 7328 1
8208 7274 7273 un
8209 7273 7280 1
8210 7275 7274 un
8211 7274 7277 1
8212 7276 7275 un
8213 7275 7327 1
8214 7276 7324 1
8215 7278 7277 1
8216 7277 7340 1
8217 7277 7341 1
8218 7279 7278 un
8219 7278 7284 un
8220 7280 7279 1
8221 7279 7281 un
8222 7280 7342 1
8223 7280 7343 1
8224 7282 7281 un
8225 7281 7329 1
8226 7283 7282 un
8227 7282 7330 1
8228 7284 7283 un
8229 7283 7288 un
8230 7284 7285 un
8231 7286 7285 un
8232 7285 7344 1
8233 7287 7286 un
8234 7286 7292 un
8235 7288 7287 un
8236 7287 7289 1
8237 7288 7331 1
8238 7290 7289 1
8239 7289 7296 1
8240 7291 7290 1
8241 7290 7293 1
8242 7292 7291 un
8243 7291 7300 un
8244 7292 7297 un
8245 7294 7293 1
8246 7293 7345 1
8247 7293 7346 1
8248 7295 7294 un
8249 7294 7333 1
8250 7294 7347 1
8251 7296 7295 1
8252 7295 7332 1
8253 7295 7348 1
8254 7296 7349 1
8255 7296 7350 1
8256 7298 7297 un
8257 7297 7335 1
8258 7299 7298 un
8259 7298 7304 1
8260 7300 7299 un
8261 7299 7301 1
8262 7300 7334 1
8263 7302 7301 1
8264 7301 7337 2
8265 7303 7302 un
8266 7302 7308 un
8267 7304 7303 1
8268 7303 7305 1
8269 7304 7336 2
8270 7306 7305 1
8271 7305 7351 1
8272 7305 7352 1
8273 7307 7306 1
8274 7306 7353 1
8275 7306 7354 1
8276 7308 7307 un
8277 7307 7312 un
8278 7308 7309 un
8279 7310 7309 un
8280 7311 7310 un
8281 7310 7319 un
8282 7312 7311 un
8283 7311 7316 1
8284 7312 7313 1
8285 7314 7313 1
8286 7313 7355 1
8287 7313 7356 1
8288 7315 7314 1
8289 7314 7357 1
8290 7314 7358 1
8291 7316 7315 1
8292 7315 7359 1
8293 7315 7360 1
8294 7316 7317 1
8295 7316 7361 1
8296 7318 7317 1
8297 7317 7362 1
8298 7317 7363 1
8299 7319 7318 un
8300 7318 7323 un
8301 7319 7320 un
8302 7321 7320 un
8303 7320 7364 1
8304 7322 7321 un
8305 7321 7365 1
8306 7323 7322 un
8307 7322 7339 1
8308 7323 7338 1
8309 7324 7325 1
8310 7324 7366 1
8311 7324 7367 1
8312 7325 7368 1
8313 7325 7369 1
8314 7325 7370 1
8315 7326 7371 1
8316 7326 7372 1
8317 7326 7373 1
8318 7327 7374 1
8319 7327 7375 1
8320 7327 7376 1
8321 7328 7377 1
8322 7328 7378 1
8323 7328 7379 1
8324 7329 7380 1
8325 7329 7381 1
8326 7329 7382 1
8327 7330 7383 1
8328 7330 7384 1
8329 7330 7385 1
8330 7331 7386 1
8331 7332 7387 1
8332 7332 7388 1
8333 7332 7389 1
8334 7333 7390 1
8335 7333 7391 1
8336 7333 7392 1
8337 7334 7393 1
8338 7335 7394 1
8339 7338 7395 1
8340 7338 7396 1
8341 7338 7397 1
8342 7339 7398 1
8343 7339 7399 1
8344 7339 7400 1
8345 7401 7402 un
8346 7401 7406 un
8347 7401 7456 1
8348 7403 7402 un
8349 7402 7458 1
8350 7404 7403 un
8351 7403 7410 1
8352 7405 7404 un
8353 7404 7407 1
8354 7406 7405 un
8355 7405 7457 1
8356 7406 7454 1
8357 7408 7407 1
8358 7407 7470 1
8359 7407 7471 1
8360 7409 7408 un
8361 7408 7414 un
8362 7410 7409 1
8363 7409 7411 un
8364 7410 7472 1
8365 7410 7473 1
8366 7412 7411 un
8367 7411 7459 1
8368 7413 7412 un
8369 7412 7460 1
8370 7414 7413 un
8371 7413 7418 un
8372 7414 7415 un
8373 7416 7415 un
8374 7415 7474 1
8375 7417 7416 un
8376 7416 7422 un
8377 7418 7417 un
8378 7417 7419 1
8379 7418 7461 1
8380 7420 7419 1
8381 7419 7426 1
8382 7421 7420 1
8383 7420 7423 1
8384 7422 7421 un
8385 7421 7430 un
8386 7422 7427 un
8387 7424 7423 1
8388 7423 7475 1
8389 7423 7476 1
8390 7425 7424 un
8391 7424 7463 1
8392 7424 7477 1
8393 7426 7425 1
8394 7425 7462 1
8395 7425 7478 1
8396 7426 7479 1
8397 7426 7480 1
8398 7428 7427 un
8399 7427 7465 1
8400 7429 7428 un
8401 7428 7434 1
8402 7430 7429 un
8403 7429 7431 1
8404 7430 7464 1
8405 7432 7431 1
8406 7431 7467 2
8407 7433 7432 un
8408 7432 7438 un
8409 7434 7433 1
8410 7433 7435 1
8411 7434 7466 2
8412 7436 7435 1
8413 7435 7481 1
8414 7435 7482 1
8415 7437 7436 1
8416 7436 7483 1
8417 7436 7484 1
8418 7438 7437 un
8419 7437 7442 un
8420 7438 7439 un
8421 7440 7439 un
8422 7441 7440 un
8423 7440 7449 un
8424 7442 7441 un
8425 7441 7446 1
8426 7442 7443 1
8427 7444 7443 1
8428 7443 7485 1
8429 7443 7486 1
8430 7445 7444 1
8431 7444 7487 1
8432 7444 7488 1
8433 7446 7445 1
8434 7445 7489 1
8435 7445 7490 1
8436 7446 7447 1
8437 7446 7491 1
8438 7448 7447 1
8439 7447 7492 1
8440 7447 7493 1
8441 7449 7448 un
8442 7448 7453 un
8443 7449 7450 un
8444 7451 7450 un
8445 7450 7494 1
8446 7452 7451 un
8447 7451 7495 1
8448 7453 7452 un
8449 7452 7469 1
8450 7453 7468 1
8451 7454 7455 1
8452 7454 7496 1
8453 7454 7497 1
8454 7455 7498 1
8455 7455 7499 1
8456 7455 7500 1
8457 7456 7501 1
8458 7456 7502 1
8459 7456 7503 1
8460 7457 7504 1
8461 7457 7505 1
8462 7457 7506 1
8463 7458 7507 1
8464 7458 7508 1
8465 7458 7509 1
8466 7459 7510 1
8467 7459 7511 1
8468 7459 7512 1
8469 7460 7513 1
8470 7460 7514 1
8471 7460 7515 1
8472 7461 7516 1
8473 7462 7517 1
8474 7462 7518 1
8475 7462 7519 1
8476 7463 7520 1
8477 7463 7521 1
8478 7463 7522 1
8479 7464 7523 1
8480 7465 7524 1
8481 7468 7525 1
8482 7468 7526 1
8483 7468 7527 1
8484 7469 7528 1
8485 7469 7529 1
8486 7469 7530 1
8487 7531 7532 un
8488 7531 7536 un
8489 7531 7586 1
8490 7533 7532 un
8491 7532 7588 1
8492 7534 7533 un
8493 7533 7540 1
8494 7535 7534 un
8495 7534 7537 1
8496 7536 7535 un
8497 7535 7587 1
8498 7536 7584 1
8499 7538 7537 1
8500 7537 7600 1
8501 7537 7601 1
8502 7539 7538 un
8503 7538 7544 un
8504 7540 7539 1
8505 7539 7541 un
8506 7540 7602 1
8507 7540 7603 1
8508 7542 7541 un
8509 7541 7589 1
8510 7543 7542 un
8511 7542 7590 1
8512 7544 7543 un
8513 7543 7548 un
8514 7544 7545 un
8515 7546 7545 un
8516 7545 7604 1
8517 7547 7546 un
8518 7546 7552 un
8519 7548 7547 un
8520 7547 7549 1
8521 7548 7591 1
8522 7550 7549 1
8523 7549 7556 1
8524 7551 7550 1
8525 7550 7553 1
8526 7552 7551 un
8527 7551 7560 un
8528 7552 7557 un
8529 7554 7553 1
8530 7553 7605 1
8531 7553 7606 1
8532 7555 7554 un
8533 7554 7593 1
8534 7554 7607 1
8535 7556 7555 1
8536 7555 7592 1
8537 7555 7608 1
8538 7556 7609 1
8539 7556 7610 1
8540 7558 7557 un
8541 7557 7595 1
8542 7559 7558 un
8543 7558 7564 1
8544 7560 7559 un
8545 7559 7561 1
8546 7560 7594 1
8547 7562 7561 1
8548 7561 7597 2
8549 7563 7562 un
8550 7562 7568 un
8551 7564 7563 1
8552 7563 7565 1
8553 7564 7596 2
8554 7566 7565 1
8555 7565 7611 1
8556 7565 7612 1
8557 7567 7566 1
8558 7566 7613 1
8559 7566 7614 1
8560 7568 7567 un
8561 7567 7572 un
8562 7568 7569 un
8563 7570 7569 un
8564 7571 7570 un
8565 7570 7579 un
8566 7572 7571 un
8567 7571 7576 1
8568 7572 7573 1
8569 7574 7573 1
8570 7573 7615 1
8571 7573 7616 1
8572 7575 7574 1
8573 7574 7617 1
8574 7574 7618 1
8575 7576 7575 1
8576 7575 7619 1
8577 7575 7620 1
8578 7576 7577 1
8579 7576 7621 1
8580 7578 7577 1
8581 7577 7622 1
8582 7577 7623 1
8583 7579 7578 un
8584 7578 7583 un
8585 7579 7580 un
8586 7581 7580 un
8587 7580 7624 1
8588 7582 7581 un
8589 7581 7625 1
8590 7583 7582 un
8591 7582 7599 1
8592 7583 7598 1
8593 7584 7585 1
8594 7584 7626 1
8595 7584 7627 1
8596 7585 7628 1
8597 7585 7629 1
8598 7585 7630 1
8599 7586 7631 1
8600 7586 7632 1
8601 7586 7633 1
8602 7587 7634 1
8603 7587 7635 1
8604 7587 7636 1
8605 7588 7637 1
8606 7588 7638 1
8607 7588 7639 1
8608 7589 7640 1
8609 7589 7641 1
8610 7589 7642 1
8611 7590 7643 1
8612 7590 7644 1
8613 7590 7645 1
8614 7591 7646 1
8615 7592 7647 1
8616 7592 7648 1
8617 7592 7649 1
8618 7593 7650 1
8619 7593 7651 1
8620 7593 7652 1
8621 7594 7653 1
8622 7595 7654 1
8623 7598 7655 1
8624 7598 7656 1
8625 7598 7657 1
8626 7599 7658 1
8627 7599 7659 1
8628 7599 7660 1
8629 7661 7662 un
8630 7661 7666 un
8631 7661 7716 1
8632 7663 7662 un
8633 7662 7718 1
8634 7664 7663 un
8635 7663 7670 1
8636 7665 7664 un
8637 7664 7667 1
8638 7666 7665 un
8639 7665 7717 1
8640 7666 7714 1
8641 7668 7667 1
8642 7667 7730 1
8643 7667 7731 1
8644 7669 7668 un
8645 7668 7674 un
8646 7670 7669 1
8647 7669 7671 un
8648 7670 7732 1
8649 7670 7733 1
8650 7672 7671 un
8651 7671 7719 1
8652 7673 7672 un
8653 7672 7720 1
8654 7674 7673 un
8655 7673 7678 un
8656 7674 7675 un
8657 7676 7675 un
8658 7675 7734 1
8659 7677 7676 un
8660 7676 7682 un
8661 7678 7677 un
8662 7677 7679 1
8663 7678 7721 1
8664 7680 7679 1
8665 7679 7686 1
8666 7681 7680 1
8667 7680 7683 1
8668 7682 7681 un
8669 7681 7690 un
8670 7682 7687 un
8671 7684 7683 1
8672 7683 7735 1
8673 7683 7736 1
8674 7685 7684 un
8675 7684 7723 1
8676 7684 7737 1
8677 7686 7685 1
8678 7685 7722 1
8679 7685 7738 1
8680 7686 7739 1
8681 7686 7740 1
8682 7688 7687 un
8683 7687 7725 1
8684 7689 7688 un
8685 7688 7694 1
8686 7690 7689 un
8687 7689 7691 1
8688 7690 7724 1
8689 7692 7691 1
8690 7691 7727 2
8691 7693 7692 un
8692 7692 7698 un
8693 7694 7693 1
8694 7693 7695 1
8695 7694 7726 2
8696 7696 7695 1
8697 7695 7741 1
8698 7695 7742 1
8699 7697 7696 1
8700 7696 7743 1
8701 7696 7744 1
8702 7698 7697 un
8703 7697 7702 un
8704 7698 7699 un
8705 7700 7699 un
8706 7701 7700 un
8707 7700 7709 un
8708 7702 7701 un
8709 7701 7706 1
8710 7702 7703 1
8711 7704 7703 1
8712 7703 7745 1
8713 7703 7746 1
8714 7705 7704 1
8715 7704 7747 1
8716 7704 7748 1
8717 7706 7705 1
8718 7705 7749 1
8719 7705 7750 1
8720 7706 7707 1
8721 7706 7751 1
8722 7708 7707 1
8723 7707 7752 1
8724 7707 7753 1
8725 7709 7708 un
8726 7708 7713 un
8727 7709 7710 un
8728 7711 7710 un
8729 7710 7754 1
8730 7712 7711 un
8731 7711 7755 1
8732 7713 7712 un
8733 7712 7729 1
8734 7713 7728 1
8735 7714 7715 1
8736 7714 7756 1
8737 7714 7757 1
8738 7715 7758 1
8739 7715 7759 1
8740 7715 7760 1
8741 7716 7761 1
8742 7716 7762 1
8743 7716 7763 1
8744 7717 7764 1
8745 7717 7765 1
8746 7717 7766 1
8747 7718 7767 1
8748 7718 7768 1
8749 7718 7769 1
8750 7719 7770 1
8751 7719 7771 1
8752 7719 7772 1
8753 7720 7773 1
8754 7720 7774 1
8755 7720 7775 1
8756 7721 7776 1
8757 7722 7777 1
8758 7722 7778 1
8759 7722 7779 1
8760 7723 7780 1
8761 7723 7781 1
8762 7723 7782 1
8763 7724 7783 1
8764 7725 7784 1
8765 7728 7785 1
8766 7728 7786 1
8767 7728 7787 1
8768 7729 7788 1
8769 7729 7789 1
8770 7729 7790 1
8771 7791 7792 un
8772 7791 7796 un
8773 7791 7846 1
8774 7793 7792 un
8775 7792 7848 1
8776 7794 7793 un
8777 7793 7800 1
8778 7795 7794 un
8779 7794 7797 1
8780 7796 7795 un
8781 7795 7847 1
8782 7796 7844 1
8783 7798 7797 1
8784 7797 7860 1
8785 7797 7861 1
8786 7799 7798 un
8787 7798 7804 un
8788 7800 7799 1
8789 7799 7801 un
8790 7800 7862 1
8791 7800 7863 1
8792 7802 7801 un
8793 7801 7849 1
8794 7803 7802 un
8795 7802 7850 1
8796 7804 7803 un
8797 7803 7808 un
8798 7804 7805 un
8799 7806 7805 un
8800 7805 7864 1
8801 7807 7806 un
8802 7806 7812 un
8803 7808 7807 un
8804 7807 7809 1
8805 7808 7851 1
8806 7810 7809 1
8807 7809 7816 1
8808 7811 7810 1
8809 7810 7813 1
8810 7812 7811 un
8811 7811 7820 un
8812 7812 7817 un
8813 7814 7813 1
8814 7813 7865 1
8815 7813 7866 1
8816 7815 7814 un
8817 7814 7853 1
8818 7814 7867 1
8819 7816 7815 1
8820 7815 7852 1
8821 7815 7868 1
8822 7816 7869 1
8823 7816 7870 1
8824 7818 7817 un
8825 7817 7855 1
8826 7819 7818 un
8827 7818 7824 1
8828 7820 7819 un
8829 7819 7821 1
8830 7820 7854 1
8831 7822 7821 1
8832 7821 7857 2
8833 7823 7822 un
8834 7822 7828 un
8835 7824 7823 1
8836 7823 7825 1
8837 7824 7856 2
8838 7826 7825 1
8839 7825 7871 1
8840 7825 7872 1
8841 7827 7826 1
8842 7826 7873 1
8843 7826 7874 1
8844 7828 7827 un
8845 7827 7832 un
8846 7828 7829 un
8847 7830 7829 un
8848 7831 7830 un
8849 7830 7839 un
8850 7832 7831 un
8851 7831 7836 1
8852 7832 7833 1
8853 7834 7833 1
8854 7833 7875 1
8855 7833 7876 1
8856 7835 7834 1
8857 7834 7877 1
8858 7834 7878 1
8859 7836 7835 1
8860 7835 7879 1
8861 7835 7880 1
8862 7836 7837 1
8863 7836 7881 1
8864 7838 7837 1
8865 7837 7882 1
8866 7837 7883 1
8867 7839 7838 un
8868 7838 7843 un
8869 7839 7840 un
8870 7841 7840 un
8871 7840 7884 1
8872 7842 7841 un
8873 7841 7885 1
8874 7843 7842 un
8875 7842 7859 1
8876 7843 7858 1
8877 7844 7845 1
8878 7844 7886 1
8879 7844 7887 1
8880 7845 7888 1
8881 7845 7889 1
8882 7845 7890 1
8883 7846 7891 1
8884 7846 7892 1
8885 7846 7893 1
8886 7847 7894 1
8887 7847 7895 1
8888 7847 7896 1
8889 7848 7897 1
8890 7848 7898 1
8891 7848 7899 1
8892 7849 7900 1
8893 7849 7901 1
8894 7849 7902 1
8895 7850 7903 1
8896 7850 7904 1
8897 7850 7905 1
8898 7851 7906 1
8899 7852 7907 1
8900 7852 7908 1
8901 7852 7909 1
8902 7853 7910 1
8903 7853 7911 1
8904 7853 7912 1
8905 7854 7913 1
8906 7855 7914 1
8907 7858 7915 1
8908 7858 7916 1
8909 7858 7917 1
8910 7859 7918 1
8911 7859 7919 1
8912 7859 7920 1
8913 7921 7922 un
8914 7921 7926 un
8915 7921 7976 1
8916 7923 7922 un
8917 7922 7978 1
8918 7924 7923 un
8919 7923 7930 1
8920 7925 7924 un
8921 7924 7927 1
8922 7926 7925 un
8923 7925 7977 1
8924 7926 7974 1
8925 7928 7927 1
8926 7927 7990 1
8927 7927 7991 1
8928 7929 7928 un
8929 7928 7934 un
8930 7930 7929 1
8931 7929 7931 un
8932 7930 7992 1
8933 7930 7993 1
8934 7932 7931 un
8935 7931 7979 1
8936 7933 7932 un
8937 7932 7980 1
8938 7934 7933 un
8939 7933 7938 un
8940 7934 7935 un
8941 7936 7935 un
8942 7935 7994 1
8943 7937 7936 un
8944 7936 7942 un
8945 7938 7937 un
8946 7937 7939 1
8947 7938 7981 1
8948 7940 7939 1
8949 7939 7946 1
8950 7941 7940 1
8951 7940 7943 1
8952 7942 7941 un
8953 7941 7950 un
8954 7942 7947 un
8955 7944 7943 1
8956 7943 7995 1
8957 7943 7996 1
8958 7945 7944 un
8959 7944 7983 1
8960 7944 7997 1
8961 7946 7945 1
8962 7945 7982 1
8963 7945 7998 1
8964 7946 7999 1
8965 7946 8000 1
8966 7948 7947 un
8967 7947 7985 1
8968 7949 7948 un
8969 7948 7954 1
8970 7950 7949 un
8971 7949 7951 1
8972 7950 7984 1
8973 7952 7951 1
8974 7951 7987 2
8975 7953 7952 un
8976 7952 7958 un
8977 7954 7953 1
8978 7953 7955 1
8979 7954 7986 2
8980 7956 7955 1
8981 7955 8001 1
8982 7955 8002 1
8983 7957 7956 1
8984 7956 8003 1
8985 7956 8004 1
8986 7958 7957 un
8987 7957 7962 un
8988 7958 7959 un
8989 7960 7959 un
8990 7961 7960 un
8991 7960 7969 un
8992 7962 7961 un
8993 7961 7966 1
8994 7962 7963 1
8995 7964 7963 1
8996 7963 8005 1
8997 7963 8006 1
8998 7965 7964 1
8999 7964 8007 1
9000 7964 8008 1
9001 7966 7965 1
9002 7965 8009 1
9003 7965 8010 1
9004 7966 7967 1
9005 7966 8011 1
9006 7968 7967 1
9007 7967 8012 1
9008 7967 8013 1
9009 7969 7968 un
9010 7968 7973 un
9011 7969 7970 un
9012 7971 7970 un
9013 7970 8014 1
9014 7972 7971 un
9015 7971 8015 1
9016 7973 7972 un
9017 7972 7989 1
9018 7973 7988 1
9019 7974 7975 1
9020 7974 8016 1
9021 7974 8017 1
9022 7975 8018 1
9023 7975 8019 1
9024 7975 8020 1
9025 7976 8021 1
9026 7976 8022 1
9027 7976 8023 1
9028 7977 8024 1
9029 7977 8025 1
9030 7977 8026 1
9031 7978 8027 1
9032 7978 8028 1
9033 7978 8029 1
9034 7979 8030 1
9035 7979 8031 1
9036 7979 8032 1
9037 7980 8033 1
9038 7980 8034 1
9039 7980 8035 1
9040 7981 8036 1
9041 7982 8037 1
9042 7982 8038 1
9043 7982 8039 1
9044 7983 8040 1
9045 7983 8041 1
9046 7983 8042 1
9047 7984 8043 1
9048 7985 8044 1
9049 7988 8045 1
9050 7988 8046 1
9051 7988 8047 1
9052 7989 8048 1
9053 7989 8049 1
9054 7989 8050 1
9055 8051 8052 un
9056 8051 8056 un
9057 8051 8106 1
9058 8053 8052 un
9059 8052 8108 1
9060 8054 8053 un
9061 8053 8060 1
9062 8055 8054 un
9063 8054 8057 1
9064 8056 8055 un
9065 8055 8107 1
9066 8056 8104 1
9067 8058 8057 1
9068 8057 8120 1
9069 8057 8121 1
9070 8059 8058 un
9071 8058 8064 un
9072 8060 8059 1
9073 8059 8061 un
9074 8060 8122 1
9075 8060 8123 1
9076 8062 8061 un
9077 8061 8109 1
9078 8063 8062 un
9079 8062 8110 1
9080 8064 8063 un
9081 8063 8068 un
9082 8064 8065 un
9083 8066 8065 un
9084 8065 8124 1
9085 8067 8066 un
9086 8066 8072 un
9087 8068 8067 un
9088 8067 8069 1
9089 8068 8111 1
9090 8070 8069 1
9091 8069 8076 1
9092 8071 8070 1
9093 8070 8073 1
9094 8072 8071 un
9095 8071 8080 un
9096 8072 8077 un
9097 8074 8073 1
9098 8073 8125 1
9099 8073 8126 1
9100 8075 8074 un
9101 8074 8113 1
9102 8074 8127 1
9103 8076 8075 1
9104 8075 8112 1
9105 8075 8128 1
9106 8076 8129 1
9107 8076 8130 1
9108 8078 8077 un
9109 8077 8115 1
9110 8079 8078 un
9111 8078 8084 1
9112 8080 8079 un
9113 8079 8081 1
9114 8080 8114 1
9115 8082 8081 1
9116 8081 8117 2
9117 8083 8082 un
9118 8082 8088 un
9119 8084 8083 1
9120 8083 8085 1
9121 8084 8116 2
9122 8086 8085 1
9123 8085 8131 1
9124 8085 8132 1
9125 8087 8086 1
9126 8086 8133 1
9127 8086 8134 1
9128 8088 8087 un
9129 8087 8092 un
9130 8088 8089 un
9131 8090 8089 un
9132 8091 8090 un
9133 8090 8099 un
9134 8092 8091 un
9135 8091 8096 1
9136 8092 8093 1
9137 8094 8093 1
9138 8093 8135 1
9139 8093 8136 1
9140 8095 8094 1
9141 8094 8137 1
9142 8094 8138 1
9143 8096 8095 1
9144 8095 8139 1
9145 8095 8140 1
9146 8096 8097 1
9147 8096 8141 1
9148 8098 8097 1
9149 8097 8142 1
9150 8097 8143 1
9151 8099 8098 un
9152 8098 8103 un
9153 8099 8100 un
9154 8101 8100 un
9155 8100 8144 1
9156 8102 8101 un
9157 8101 8145 1
9158 8103 8102 un
9159 8102 8119 1
9160 8103 8118 1
9161 8104 8105 1
9162 8104 8146 1
9163 8104 8147 1
9164 8105 8148 1
9165 8105 8149 1
9166 8105 8150 1
9167 8106 8151 1
9168 8106 8152 1
9169 8106 8153 1
9170 8107 8154 1
9171 8107 8155 1
9172 8107 8156 1
9173 8108 8157 1
9174 8108 8158 1
9175 8108 8159 1
9176 8109 8160 1
9177 8109 8161 1
9178 8109 8162 1
9179 8110 8163 1
9180 8110 8164 1
9181 8110 8165 1
9182 8111 8166 1
9183 8112 8167 1
9184 8112 8168 1
9185 8112 8169 1
9186 8113 8170 1
9187 8113 8171 1
9188 8113 8172 1
9189 8114 8173 1
9190 8115 8174 1
9191 8118 8175 1
9192 8118 8176 1
9193 8118 8177 1
9194 8119 8178 1
9195 8119 8179 1
9196 8119 8180 1
9197 8181 8182 un
9198 8181 8186 un
9199 8181 8236 1
9200 8183 8182 un
9201 8182 8238 1
9202 8184 8183 un
9203 8183 8190 1
9204 8185 8184 un
9205 8184 8187 1
9206 8186 8185 un
9207 8185 8237 1
9208 8186 8234 1
9209 8188 8187 1
9210 8187 8250 1
9211 8187 8251 1
9212 8189 8188 un
9213 8188 8194 un
9214 8190 8189 1
9215 8189 8191 un
9216 8190 8252 1
9217 8190 8253 1
9218 8192 8191 un
9219 8191 8239 1
9220 8193 8192 un
9221 8192 8240 1
9222 8194 8193 un
9223 8193 8198 un
9224 8194 8195 un
9225 8196 8195 un
9226 8195 8254 1
9227 8197 8196 un
9228 8196 8202 un
9229 8198 8197 un
9230 8197 8199 1
9231 8198 8241 1
9232 8200 8199 1
9233 8199 8206 1
9234 8201 8200 1
9235 8200 8203 1
9236 8202 8201 un
9237 8201 8210 un
9238 8202 8207 un
9239 8204 8203 1
9240 8203 8255 1
9241 8203 8256 1
9242 8205 8204 un
9243 8204 8243 1
9244 8204 8257 1
9245 8206 8205 1
9246 8205 8242 1
9247 8205 8258 1
9248 8206 8259 1
9249 8206 8260 1
9250 8208 8207 un
9251 8207 8245 1
9252 8209 8208 un
9253 8208 8214 1
9254 8210 8209 un
9255 8209 8211 1
9256 8210 8244 1
9257 8212 8211 1
9258 8211 8247 2
9259 8213 8212 un
9260 8212 8218 un
9261 8214 8213 1
9262 8213 8215 1
9263 8214 8246 2
9264 8216 8215 1
9265 8215 8261 1
9266 8215 8262 1
9267 8217 8216 1
9268 8216 8263 1
9269 8216 8264 1
9270 8218 8217 un
9271 8217 8222 un
9272 8218 8219 un
9273 8220 8219 un
9274 8221 8220 un
9275 8220 8229 un
9276 8222 8221 un
9277 8221 8226 1
9278 8222 8223 1
9279 8224 8223 1
9280 8223 8265 1
9281 8223 8266 1
9282 8225 8224 1
9283 8224 8267 1
9284 8224 8268 1
9285 8226 8225 1
9286 8225 8269 1
9287 8225 8270 1
9288 8226 8227 1
9289 8226 8271 1
9290 8228 8227 1
9291 8227 8272 1
9292 8227 8273 1
9293 8229 8228 un
9294 8228 8233 un
9295 8229 8230 un
9296 8231 8230 un
9297 8230 8274 1
9298 8232 8231 un
9299 8231 8275 1
9300 8233 8232 un
9301 8232 8249 1
9302 8233 8248 1
9303 8234 8235 1
9304 8234 8276 1
9305 8234 8277 1
9306 8235 8278 1
9307 8235 8279 1
9308 8235 8280 1
9309 8236 8281 1
9310 8236 8282 1
9311 8236 8283 1
9312 8237 8284 1
9313 8237 8285 1
9314 8237 8286 1
9315 8238 8287 1
9316 8238 8288 1
9317 8238 8289 1
9318 8239 8290 1
9319 8239 8291 1
9320 8239 8292 1
9321 8240 8293 1
9322 8240 8294 1
9323 8240 8295 1
9324 8241 8296 1
9325 8242 8297 1
9326 8242 8298 1
9327 8242 8299 1
9328 8243 8300 1
9329 8243 8301 1
9330 8243 8302 1
9331 8244 8303 1
9332 8245 8304 1
9333 8248 8305 1
9334 8248 8306 1
9335 8248 8307 1
9336 8249 8308 1
9337 8249 8309 1
9338 8249 8310 1
9339 8311 8312 un
9340 8311 8316 un
9341 8311 8366 1
9342 8313 8312 un
9343 8312 8368 1
9344 8314 8313 un
9345 8313 8320 1
9346 8315 8314 un
9347 8314 8317 1
9348 8316 8315 un
9349 8315 8367 1
9350 8316 8364 1
9351 8318 8317 1
9352 8317 8380 1
9353 8317 8381 1
9354 8319 8318 un
9355 8318 8324 un
9356 8320 8319 1
9357 8319 8321 un
9358 8320 8382 1
9359 8320 8383 1
9360 8322 8321 un
9361 8321 8369 1
9362 8323 8322 un
9363 8322 8370 1
9364 8324 8323 un
9365 8323 8328 un
9366 8324 8325 un
9367 8326 8325 un
9368 8325 8384 1
9369 8327 8326 un
9370 8326 8332 un
9371 8328 8327 un
9372 8327 8329 1
9373 8328 8371 1
9374 8330 8329 1
9375 8329 8336 1
9376 8331 8330 1
9377 8330 8333 1
9378 8332 8331 un
9379 8331 8340 un
9380 8332 8337 un
9381 8334 8333 1
9382 8333 8385 1
9383 8333 8386 1
9384 8335 8334 un
9385 8334 8373 1
9386 8334 8387 1
9387 8336 8335 1
9388 8335 8372 1
9389 8335 8388 1
9390 8336 8389 1
9391 8336 8390 1
9392 8338 8337 un
9393 8337 8375 1
9394 8339 8338 un
9395 8338 8344 1
9396 8340 8339 un
9397 8339 8341 1
9398 8340 8374 1
9399 8342 8341 1
9400 8341 8377 2
9401 8343 8342 un
9402 8342 8348 un
9403 8344 8343 1
9404 8343 8345 1
9405 8344 8376 2
9406 8346 8345 1
9407 8345 8391 1
9408 8345 8392 1
9409 8347 8346 1
9410 8346 8393 1
9411 8346 8394 1
9412 8348 8347 un
9413 8347 8352 un
9414 8348 8349 un
9415 8350 8349 un
9416 8351 8350 un
9417 8350 8359 un
9418 8352 8351 un
9419 8351 8356 1
9420 8352 8353 1
9421 8354 8353 1
9422 8353 8395 1
9423 8353 8396 1
9424 8355 8354 1
9425 8354 8397 1
9426 8354 8398 1
9427 8356 8355 1
9428 8355 8399 1
9429 8355 8400 1
9430 8356 8357 1
9431 8356 8401 1
9432 8358 8357 1
9433 8357 8402 1
9434 8357 8403 1
9435 8359 8358 un
9436 8358 8363 un
9437 8359 8360 un
9438 8361 8360 un
9439 8360 8404 1
9440 8362 8361 un
9441 8361 8405 1
9442 8363 8362 un
9443 8362 8379 1
9444 8363 8378 1
9445 8364 8365 1
9446 8364 8406 1
9447 8364 8407 1
9448 8365 8408 1
9449 8365 8409 1
9450 8365 8410 1
9451 8366 8411 1
9452 8366 8412 1
9453 8366 8413 1
9454 8367 8414 1
9455 8367 8415 1
9456 8367 8416 1
9457 8368 8417 1
9458 8368 8418 1
9459 8368 8419 1
9460 8369 8420 1
9461 8369 8421 1
9462 8369 8422 1
9463 8370 8423 1
9464 8370 8424 1
9465 8370 8425 1
9466 8371 8426 1
9467 8372 8427 1
9468 8372 8428 1
9469 8372 8429 1
9470 8373 8430 1
9471 8373 8431 1
9472 8373 8432 1
9473 8374 8433 1
9474 8375 8434 1
9475 8378 8435 1
9476 8378 8436 1
9477 8378 8437 1
9478 8379 8438 1
9479 8379 8439 1
9480 8379 8440 1
9481 8441 8442 un
9482 8441 8446 un
9483 8441 8496 1
9484 8443 8442 un
9485 8442 8498 1
9486 8444 8443 un
9487 8443 8450 1
9488 8445 8444 un
9489 8444 8447 1
9490 8446 8445 un
9491 8445 8497 1
9492 8446 8494 1
9493 8448 8447 1
9494 8447 8510 1
9495 8447 8511 1
9496 8449 8448 un
9497 8448 8454 un
9498 8450 8449 1
9499 8449 8451 un
9500 8450 8512 1
9501 8450 8513 1
9502 8452 8451 un
9503 8451 8499 1
9504 8453 8452 un
9505 8452 8500 1
9506 8454 8453 un
9507 8453 8458 un
9508 8454 8455 un
9509 8456 8455 un
9510 8455 8514 1
9511 8457 8456 un
9512 8456 8462 un
9513 8458 8457 un
9514 8457 8459 1
9515 8458 8501 1
9516 8460 8459 1
9517 8459 8466 1
9518 8461 8460 1
9519 8460 8463 1
9520 8462 8461 un
9521 8461 8470 un
9522 8462 8467 un
9523 8464 8463 1
9524 8463 8515 1
9525 8463 8516 1
9526 8465 8464 un
9527 8464 8503 1
9528 8464 8517 1
9529 8466 8465 1
9530 8465 8502 1
9531 8465 8518 1
9532 8466 8519 1
9533 8466 8520 1
9534 8468 8467 un
9535 8467 8505 1
9536 8469 8468 un
9537 8468 8474 1
9538 8470 8469 un
9539 8469 8471 1
9540 8470 8504 1
9541 8472 8471 1
9542 8471 8507 2
9543 8473 8472 un
9544 8472 8478 un
9545 8474 8473 1
9546 8473 8475 1
9547 8474 8506 2
9548 8476 8475 1
9549 8475 8521 1
9550 8475 8522 1
9551 8477 8476 1
9552 8476 8523 1
9553 8476 8524 1
9554 8478 8477 un
9555 8477 8482 un
9556 8478 8479 un
9557 8480 8479 un
9558 8481 8480 un
9559 8480 8489 un
9560 8482 8481 un
9561 8481 8486 1
9562 8482 8483 1
9563 8484 8483 1
9564 8483 8525 1
9565 8483 8526 1
9566 8485 8484 1
9567 8484 8527 1
9568 8484 8528 1
9569 8486 8485 1
9570 8485 8529 1
9571 8485 8530 1
9572 8486 8487 1
9573 8486 8531 1
9574 8488 8487 1
9575 8487 8532 1
9576 8487 8533 1
9577 8489 8488 un
9578 8488 8493 un
9579 8489 8490 un
9580 8491 8490 un
9581 8490 8534 1
9582 8492 8491 un
9583 8491 8535 1
9584 8493 8492 un
9585 8492 8509 1
9586 8493 8508 1
9587 8494 8495 1
9588 8494 8536 1
9589 8494 8537 1
9590 8495 8538 1
9591 8495 8539 1
9592 8495 8540 1
9593 8496 8541 1
9594 8496 8542 1
9595 8496 8543 1
9596 8497 8544 1
9597 8497 8545 1
9598 8497 8546 1
9599 8498 8547 1
9600 8498 8548 1
9601 8498 8549 1
9602 8499 8550 1
9603 8499 8551 1
9604 8499 8552 1
9605 8500 8553 1
9606 8500 8554 1
9607 8500 8555 1
9608 8501 8556 1
9609 8502 8557 1
9610 8502 8558 1
9611 8502 8559 1
9612 8503 8560 1
9613 8503 8561 1
9614 8503 8562 1
9615 8504 8563 1
9616 8505 8564 1
9617 8508 8565 1
9618 8508 8566 1
9619 8508 8567 1
9620 8509 8568 1
9621 8509 8569 1
9622 8509 8570 1
9623 8571 8572 un
9624 8571 8576 un
9625 8571 8626 1
9626 8573 8572 un
9627 8572 8628 1
9628 8574 8573 un
9629 8573 8580 1
9630 8575 8574 un
9631 8574 8577 1
9632 8576 8575 un
9633 8575 8627 1
9634 8576 8624 1
9635 8578 8577 1
9636 8577 8640 1
9637 8577 8641 1
9638 8579 8578 un
9639 8578 8584 un
9640 8580 8579 1
9641 8579 8581 un
9642 8580 8642 1
9643 8580 8643 1
9644 8582 8581 un
9645 8581 8629 1
9646 8583 8582 un
9647 8582 8630 1
9648 8584 8583 un
9649 8583 8588 un
9650 8584 8585 un
9651 8586 8585 un
9652 8585 8644 1
9653 8587 8586 un
9654 8586 8592 un
9655 8588 8587 un
9656 8587 8589 1
9657 8588 8631 1
9658 8590 8589 1
9659 8589 8596 1
9660 8591 8590 1
9661 8590 8593 1
9662 8592 8591 un
9663 8591 8600 un
9664 8592 8597 un
9665 8594 8593 1
9666 8593 8645 1
9667 8593 8646 1
9668 8595 8594 un
9669 8594 8633 1
9670 8594 8647 1
9671 8596 8595 1
9672 8595 8632 1
9673 8595 8648 1
9674 8596 8649 1
9675 8596 8650 1
9676 8598 8597 un
9677 8597 8635 1
9678 8599 8598 un
9679 8598 8604 1
9680 8600 8599 un
9681 8599 8601 1
9682 8600 8634 1
9683 8602 8601 1
9684 8601 8637 2
9685 8603 8602 un
9686 8602 8608 un
9687 8604 8603 1
9688 8603 8605 1
9689 8604 8636 2
9690 8606 8605 1
9691 8605 8651 1
9692 8605 8652 1
9693 8607 8606 1
9694 8606 8653 1
9695 8606 8654 1
9696 8608 8607 un
9697 8607 8612 un
9698 8608 8609 un
9699 8610 8609 un
9700 8611 8610 un
9701 8610 8619 un
9702 8612 8611 un
9703 8611 8616 1
9704 8612 8613 1
9705 8614 8613 1
9706 8613 8655 1
9707 8613 8656 1
9708 8615 8614 1
9709 8614 8657 1
9710 8614 8658 1
9711 8616 8615 1
9712 8615 8659 1
9713 8615 8660 1
9714 8616 8617 1
9715 8616 8661 1
9716 8618 8617 1
9717 8617 8662 1
9718 8617 8663 1
9719 8619 8618 un
9720 8618 8623 un
9721 8619 8620 un
9722 8621 8620 un
9723 8620 8664 1
9724 8622 8621 un
9725 8621 8665 1
9726 8623 8622 un
9727 8622 8639 1
9728 8623 8638 1
9729 8624 8625 1
9730 8624 8666 1
9731 8624 8667 1
9732 8625 8668 1
9733 8625 8669 1
9734 8625 8670 1
9735 8626 8671 1
9736 8626 8672 1
9737 8626 8673 1
9738 8627 8674 1
9739 8627 8675 1
9740 8627 8676 1
9741 8628 8677 1
9742 8628 8678 1
9743 8628 8679 1
9744 8629 8680 1
9745 8629 8681 1
9746 8629 8682 1
9747 8630 8683 1
9748 8630 8684 1
9749 8630 8685 1
9750 8631 8686 1
9751 8632 8687 1
9752 8632 8688 1
9753 8632 8689 1
9754 8633 8690 1
9755 8633 8691 1
9756 8633 8692 1
9757 8634 8693 1
9758 8635 8694 1
9759 8638 8695 1
9760 8638 8696 1
9761 8638 8697 1
9762 8639 8698 1
9763 8639 8699 1
9764 8639 8700 1
9765 8701 8702 un
9766 8701 8706 un
9767 8701 8756 1
9768 8703 8702 un
9769 8702 8758 1
9770 8704 8703 un
9771 8703 8710 1
9772 8705 8704 un
9773 8704 8707 1
9774 8706 8705 un
9775 8705 8757 1
9776 8706 8754 1
9777 8708 8707 1
9778 8707 8770 1
9779 8707 8771 1
9780 8709 8708 un
9781 8708 8714 un
9782 8710 8709 1
9783 8709 8711 un
9784 8710 8772 1
9785 8710 8773 1
9786 8712 8711 un
9787 8711 8759 1
9788 8713 8712 un
9789 8712 8760 1
9790 8714 8713 un
9791 8713 8718 un
9792 8714 8715 un
9793 8716 8715 un
9794 8715 8774 1
9795 8717 8716 un
9796 8716 8722 un
9797 8718 8717 un
9798 8717 8719 1
9799 8718 8761 1
9800 8720 8719 1
9801 8719 8726 1
9802 8721 8720 1
9803 8720 8723 1
9804 8722 8721 un
9805 8721 8730 un
9806 8722 8727 un
9807 8724 8723 1
9808 8723 8775 1
9809 8723 8776 1
9810 8725 8724 un
9811 8724 8763 1
9812 8724 8777 1
9813 8726 8725 1
9814 8725 8762 1
9815 8725 8778 1
9816 8726 8779 1
9817 8726 8780 1
9818 8728 8727 un
9819 8727 8765 1
9820 8729 8728 un
9821 8728 8734 1
9822 8730 8729 un
9823 8729 8731 1
9824 8730 8764 1
9825 8732 8731 1
9826 8731 8767 2
9827 8733 8732 un
9828 8732 8738 un
9829 8734 8733 1
9830 8733 8735 1
9831 8734 8766 2
9832 8736 8735 1
9833 8735 8781 1
9834 8735 8782 1
9835 8737 8736 1
9836 8736 8783 1
9837 8736 8784 1
9838 8738 8737 un
9839 8737 8742 un
9840 8738 8739 un
9841 8740 8739 un
9842 8741 8740 un
9843 8740 8749 un
9844 8742 8741 un
9845 8741 8746 1
9846 8742 8743 1
9847 8744 8743 1
9848 8743 8785 1
9849 8743 8786 1
9850 8745 8744 1
9851 8744 8787 1
9852 8744 8788 1
9853 8746 8745 1
9854 8745 8789 1
9855 8745 8790 1
9856 8746 8747 1
9857 8746 8791 1
9858 8748 8747 1
9859 8747 8792 1
9860 8747 8793 1
9861 8749 8748 un
9862 8748 8753 un
9863 8749 8750 un
9864 8751 8750 un
9865 8750 8794 1
9866 8752 8751 un
9867 8751 8795 1
9868 8753 8752 un
9869 8752 8769 1
9870 8753 8768 1
9871 8754 8755 1
9872 8754 8796 1
9873 8754 8797 1
9874 8755 8798 1
9875 8755 8799 1
9876 8755 8800 1
9877 8756 8801 1
9878 8756 8802 1
9879 8756 8803 1
9880 8757 8804 1
9881 8757 8805 1
9882 8757 8806 1
9883 8758 8807 1
9884 8758 8808 1
9885 8758 8809 1
9886 8759 8810 1
9887 8759 8811 1
9888 8759 8812 1
9889 8760 8813 1
9890 8760 8814 1
9891 8760 8815 1
9892 8761 8816 1
9893 8762 8817 1
9894 8762 8818 1
9895 8762 8819 1
9896 8763 8820 1
9897 8763 8821 1
9898 8763 8822 1
9899 8764 8823 1
9900 8765 8824 1
9901 8768 8825 1
9902 8768 8826 1
9903 8768 8827 1
9904 8769 8828 1
9905 8769 8829 1
9906 8769 8830 1
9907 8831 8832 un
9908 8831 8836 un
9909 8831 8886 1
9910 8833 8832 un
9911 8832 8888 1
9912 8834 8833 un
9913 8833 8840 1
9914 8835 8834 un
9915 8834 8837 1
9916 8836 8835 un
9917 8835 8887 1
9918 8836 8884 1
9919 8838 8837 1
9920 8837 8900 1
9921 8837 8901 1
9922 8839 8838 un
9923 8838 8844 un
9924 8840 8839 1
9925 8839 8841 un
9926 8840 8902 1
9927 8840 8903 1
9928 8842 8841 un
9929 8841 8889 1
9930 8843 8842 un
9931 8842 8890 1
9932 8844 8843 un
9933 8843 8848 un
9934 8844 8845 un
9935 8846 8845 un
9936 8845 8904 1
9937 8847 8846 un
9938 8846 8852 un
9939 8848 8847 un
9940 8847 8849 1
9941 8848 8891 1
9942 8850 8849 1
9943 8849 8856 1
9944 8851 8850 1
9945 8850 8853 1
9946 8852 8851 un
9947 8851 8860 un
9948 8852 8857 un
9949 8854 8853 1
9950 8853 8905 1
9951 8853 8906 1
9952 8855 8854 un
9953 8854 8893 1
9954 8854 8907 1
9955 8856 8855 1
9956 8855 8892 1
9957 8855 8908 1
9958 8856 8909 1
9959 8856 8910 1
9960 8858 8857 un
9961 8857 8895 1
9962 8859 8858 un
9963 8858 8864 1
9964 8860 8859 un
9965 8859 8861 1
9966 8860 8894 1
9967 8862 8861 1
9968 8861 8897 2
9969 8863 8862 un
9970 8862 8868 un
9971 8864 8863 1
9972 8863 8865 1
9973 8864 8896 2
9974 8866 8865 1
9975 8865 8911 1
9976 8865 8912 1
9977 8867 8866 1
9978 8866 8913 1
9979 8866 8914 1
9980 8868 8867 un
9981 8867 8872 un
9982 8868 8869 un
9983 8870 8869 un
9984 8871 8870 un
9985 8870 8879 un
9986 8872 8871 un
9987 8871 8876 1
9988 8872 8873 1
9989 8874 8873 1
9990 8873 8915 1
9991 8873 8916 1
9992 8875 8874 1
9993 8874 8917 1
9994 8874 8918 1
9995 8876 8875 1
9996 8875 8919 1
9997 8875 8920 1
9998 8876 8877 1
9999 8876 8921 1
10000 8878 8877 1
10001 8877 8922 1
10002 8877 8923 1
10003 8879 8878 un
10004 8878 8883 un
10005 8879 8880 un
10006 8881 8880 un
10007 8880 8924 1
10008 8882 8881 un
10009 8881 8925 1
10010 8883 8882 un
10011 8882 8899 1
10012 8883 8898 1
10013 8884 8885 1
10014 8884 8926 1
10015 8884 8927 1
10016 8885 8928 1
10017 8885 8929 1
10018 8885 8930 1
10019 8886 8931 1
10020 8886 8932 1
10021 8886 8933 1
10022 8887 8934 1
10023 8887 8935 1
10024 8887 8936 1
10025 8888 8937 1
10026 8888 8938 1
10027 8888 8939 1
10028 8889 8940 1
10029 8889 8941 1
10030 8889 8942 1
10031 8890 8943 1
10032 8890 8944 1
10033 8890 8945 1
10034 8891 8946 1
10035 8892 8947 1
10036 8892 8948 1
10037 8892 8949 1
10038 8893 8950 1
10039 8893 8951 1
10040 8893 8952 1
10041 8894 8953 1
10042 8895 8954 1
10043 8898 8955 1
10044 8898 8956 1
10045 8898 8957 1
10046 8899 8958 1
10047 8899 8959 1
10048 8899 8960 1
10049 8961 8962 un
10050 8961 8966 un
10051 8961 9016 1
10052 8963 8962 un
10053 8962 9018 1
10054 8964 8963 un
10055 8963 8970 1
10056 8965 8964 un
10057 8964 8967 1
10058 8966 8965 un
10059 8965 9017 1
10060 8966 9014 1
10061 8968 8967 1
10062 8967 9030 1
10063 8967 9031 1
10064 8969 8968 un
10065 8968 8974 un
10066 8970 8969 1
10067 8969 8971 un
10068 8970 9032 1
10069 8970 9033 1
10070 8972 8971 un
10071 8971 9019 1
10072 8973 8972 un
10073 8972 9020 1
10074 8974 8973 un
10075 8973 8978 un
10076 8974 8975 un
10077 8976 8975 un
10078 8975 9034 1
10079 8977 8976 un
10080 8976 8982 un
10081 8978 8977 un
10082 8977 8979 1
10083 8978 9021 1
10084 8980 8979 1
10085 8979 8986 1
10086 8981 8980 1
10087 8980 8983 1
10088 8982 8981 un
10089 8981 8990 un
10090 8982 8987 un
10091 8984 8983 1
10092 8983 9035 1
10093 8983 9036 1
10094 8985 8984 un
10095 8984 9023 1
10096 8984 9037 1
10097 8986 8985 1
10098 8985 9022 1
10099 8985 9038 1
10100 8986 9039 1
10101 8986 9040 1
10102 8988 8987 un
10103 8987 9025 1
10104 8989 8988 un
10105 8988 8994 1
10106 8990 8989 un
10107 8989 8991 1
10108 8990 9024 1
10109 8992 8991 1
10110 8991 9027 2
10111 8993 8992 un
10112 8992 8998 un
10113 8994 8993 1
10114 8993 8995 1
10115 8994 9026 2
10116 8996 8995 1
10117 8995 9041 1
10118 8995 9042 1
10119 8997 8996 1
10120 8996 9043 1
10121 8996 9044 1
10122 8998 8997 un
10123 8997 9002 un
10124 8998 8999 un
10125 9000 8999 un
10126 9001 9000 un
10127 9000 9009 un
10128 9002 9001 un
10129 9001 9006 1
10130 9002 9003 1
10131 9004 9003 1
10132 9003 9045 1
10133 9003 9046 1
10134 9005 9004 1
10135 9004 9047 1
10136 9004 9048 1
10137 9006 9005 1
10138 9005 9049 1
10139 9005 9050 1
10140 9006 9007 1
10141 9006 9051 1
10142 9008 9007 1
10143 9007 9052 1
10144 9007 9053 1
10145 9009 9008 un
10146 9008 9013 un
10147 9009 9010 un
10148 9011 9010 un
10149 9010 9054 1
10150 9012 9011 un
10151 9011 9055 1
10152 9013 9012 un
10153 9012 9029 1
10154 9013 9028 1
10155 9014 9015 1
10156 9014 9056 1
10157 9014 9057 1
10158 9015 9058 1
10159 9015 9059 1
10160 9015 9060 1
10161 9016 9061 1
10162 9016 9062 1
10163 9016 9063 1
10164 9017 9064 1
10165 9017 9065 1
10166 9017 9066 1
10167 9018 9067 1
10168 9018 9068 1
10169 9018 9069 1
10170 9019 9070 1
10171 9019 9071 1
10172 9019 9072 1
10173 9020 9073 1
10174 9020 9074 1
10175 9020 9075 1
10176 9021 9076 1
10177 9022 9077 1
10178 9022 9078 1
10179 9022 9079 1
10180 9023 9080 1
10181 9023 9081 1
10182 9023 9082 1
10183 9024 9083 1
10184 9025 9084 1
10185 9028 9085 1
10186 9028 9086 1
10187 9028 9087 1
10188 9029 9088 1
10189 9029 9089 1
10190 9029 9090 1
10191 9091 9092 un
10192 9091 9096 un
10193 9091 9146 1
10194 9093 9092 un
10195 9092 9148 1
10196 9094 9093 un
10197 9093 9100 1
10198 9095 9094 un
10199 9094 9097 1
10200 9096 9095 un
10201 9095 9147 1
10202 9096 9144 1
10203 9098 9097 1
10204 9097 9160 1
10205 9097 9161 1
10206 9099 9098 un
10207 9098 9104 un
10208 9100 9099 1
10209 9099 9101 un
10210 9100 9162 1
10211 9100 9163 1
10212 9102 9101 un
10213 9101 9149 1
10214 9103 9102 un
10215 9102 9150 1
10216 9104 9103 un
10217 9103 9108 un
10218 9104 9105 un
10219 9106 9105 un
10220 9105 9164 1
10221 9107 9106 un
10222 9106 9112 un
10223 9108 9107 un
10224 9107 9109 1
10225 9108 9151 1
10226 9110 9109 1
10227 9109 9116 1
10228 9111 9110 1
10229 9110 9113 1
10230 9112 9111 un
10231 9111 9120 un
10232 9112 9117 un
10233 9114 9113 1
10234 9113 9165 1
10235 9113 9166 1
10236 9115 9114 un
10237 9114 9153 1
10238 9114 9167 1
10239 9116 9115 1
10240 9115 9152 1
10241 9115 9168 1
10242 9116 9169 1
10243 9116 9170 1
10244 9118 9117 un
10245 9117 9155 1
10246 9119 9118 un
10247 9118 9124 1
10248 9120 9119 un
10249 9119 9121 1
10250 9120 9154 1
10251 9122 9121 1
10252 9121 9157 2
10253 9123 9122 un
10254 9122 9128 un
10255 9124 9123 1
10256 9123 9125 1
10257 9124 9156 2
10258 9126 9125 1
10259 9125 9171 1
10260 9125 9172 1
10261 9127 9126 1
10262 9126 9173 1
10263 9126 9174 1
10264 9128 9127 un
10265 9127 9132 un
10266 9128 9129 un
10267 9130 9129 un
10268 9131 9130 un
10269 9130 9139 un
10270 9132 9131 un
10271 9131 9136 1
10272 9132 9133 1
10273 9134 9133 1
10274 9133 9175 1
10275 9133 9176 1
10276 9135 9134 1
10277 9134 9177 1
10278 9134 9178 1
10279 9136 9135 1
10280 9135 9179 1
10281 9135 9180 1
10282 9136 9137 1
10283 9136 9181 1
10284 9138 9137 1
10285 9137 9182 1
10286 9137 9183 1
10287 9139 9138 un
10288 9138 9143 un
10289 9139 9140 un
10290 9141 9140 un
10291 9140 9184 1
10292 9142 9141 un
10293 9141 9185 1
10294 9143 9142 un
10295 9142 9159 1
10296 9143 9158 1
10297 9144 9145 1
10298 9144 9186 1
10299 9144 9187 1
10300 9145 9188 1
10301 9145 9189 1
10302 9145 9190 1
10303 9146 9191 1
10304 9146 9192 1
10305 9146 9193 1
10306 9147 9194 1
10307 9147 9195 1
10308 9147 9196 1
10309 9148 9197 1
10310 9148 9198 1
10311 9148 9199 1
10312 9149 9200 1
10313 9149 9201 1
10314 9149 9202 1
10315 9150 9203 1
10316 9150 9204 1
10317 9150 9205 1
10318 9151 9206 1
10319 9152 9207 1
10320 9152 9208 1
10321 9152 9209 1
10322 9153 9210 1
10323 9153 9211 1
10324 9153 9212 1
10325 9154 9213 1
10326 9155 9214 1
10327 9158 9215 1
10328 9158 9216 1
10329 9158 9217 1
10330 9159 9218 1
10331 9159 9219 1
10332 9159 9220 1
10333 9221 9222 un
10334 9221 9226 un
10335 9221 9276 1
10336 9223 9222 un
10337 9222 9278 1
10338 9224 9223 un
10339 9223 9230 1
10340 9225 9224 un
10341 9224 9227 1
10342 9226 9225 un
10343 9225 9277 1
10344 9226 9274 1
10345 9228 9227 1
10346 9227 9290 1
10347 9227 9291 1
10348 9229 9228 un
10349 9228 9234 un
10350 9230 9229 1
10351 9229 9231 un
10352 9230 9292 1
10353 9230 9293 1
10354 9232 9231 un
10355 9231 9279 1
10356 9233 9232 un
10357 9232 9280 1
10358 9234 9233 un
10359 9233 9238 un
10360 9234 9235 un
10361 9236 9235 un
10362 9235 9294 1
10363 9237 9236 un
10364 9236 9242 un
10365 9238 9237 un
10366 9237 9239 1
10367 9238 9281 1
10368 9240 9239 1
10369 9239 9246 1
10370 9241 9240 1
10371 9240 9243 1
10372 9242 9241 un
10373 9241 9250 un
10374 9242 9247 un
10375 9244 9243 1
10376 9243 9295 1
10377 9243 9296 1
10378 9245 9244 un
10379 9244 9283 1
10380 9244 9297 1
10381 9246 9245 1
10382 9245 9282 1
10383 9245 9298 1
10384 9246 9299 1
10385 9246 9300 1
10386 9248 9247 un
10387 9247 9285 1
10388 9249 9248 un
10389 9248 9254 1
10390 9250 9249 un
10391 9249 9251 1
10392 9250 9284 1
10393 9252 9251 1
10394 9251 9287 2
10395 9253 9252 un
10396 9252 9258 un
10397 9254 9253 1
10398 9253 9255 1
10399 9254 9286 2
10400 9256 9255 1
10401 9255 9301 1
10402 9255 9302 1
10403 9257 9256 1
10404 9256 9303 1
10405 9256 9304 1
10406 9258 9257 un
10407 9257 9262 un
10408 9258 9259 un
10409 9260 9259 un
10410 9261 9260 un
10411 9260 9269 un
10412 9262 9261 un
10413 9261 9266 1
10414 9262 9263 1
10415 9264 9263 1
10416 9263 9305 1
10417 9263 9306 1
10418 9265 9264 1
10419 9264 9307 1
10420 9264 9308 1
10421 9266 9265 1
10422 9265 9309 1
10423 9265 9310 1
10424 9266 9267 1
10425 9266 9311 1
10426 9268 9267 1
10427 9267 9312 1
10428 9267 9313 1
10429 9269 9268 un
10430 9268 9273 un
10431 9269 9270 un
10432 9271 9270 un
10433 9270 9314 1
10434 9272 9271 un
10435 9271 9315 1
10436 9273 9272 un
10437 9272 9289 1
10438 9273 9288 1
10439 9274 9275 1
10440 9274 9316 1
10441 9274 9317 1
10442 9275 9318 1
10443 9275 9319 1
10444 9275 9320 1
10445 9276 9321 1
10446 9276 9322 1
10447 9276 9323 1
10448 9277 9324 1
10449 9277 9325 1
10450 9277 9326 1
10451 9278 9327 1
10452 9278 9328 1
10453 9278 9329 1
10454 9279 9330 1
10455 9279 9331 1
10456 9279 9332 1
10457 9280 9333 1
10458 9280 9334 1
10459 9280 9335 1
10460 9281 9336 1
10461 9282 9337 1
10462 9282 9338 1
10463 9282 9339 1
10464 9283 9340 1
10465 9283 9341 1
10466 9283 9342 1
10467 9284 9343 1
10468 9285 9344 1
10469 9288 9345 1
10470 9288 9346 1
10471 9288 9347 1
10472 9289 9348 1
10473 9289 9349 1
10474 9289 9350 1
10475 9351 9352 un
10476 9351 9356 un
10477 9351 9406 1
10478 9353 9352 un
10479 9352 9408 1
10480 9354 9353 un
10481 9353 9360 1
10482 9355 9354 un
10483 9354 9357 1
10484 9356 9355 un
10485 9355 9407 1
10486 9356 9404 1
10487 9358 9357 1
10488 9357 9420 1
10489 9357 9421 1
10490 9359 9358 un
10491 9358 9364 un
10492 9360 9359 1
10493 9359 9361 un
10494 9360 9422 1
10495 9360 9423 1
10496 9362 9361 un
10497 9361 9409 1
10498 9363 9362 un
10499 9362 9410 1
10500 9364 9363 un
10501 9363 9368 un
10502 9364 9365 un
10503 9366 9365 un
10504 9365 9424 1
10505 9367 9366 un
10506 9366 9372 un
10507 9368 9367 un
10508 9367 9369 1
10509 9368 9411 1
10510 9370 9369 1
10511 9369 9376 1
10512 9371 9370 1
10513 9370 9373 1
10514 9372 9371 un
10515 9371 9380 un
10516 9372 9377 un
10517 9374 9373 1
10518 9373 9425 1
10519 9373 9426 1
10520 9375 9374 un
10521 9374 9413 1
10522 9374 9427 1
10523 9376 9375 1
10524 9375 9412 1
10525 9375 9428 1
10526 9376 9429 1
10527 9376 9430 1
10528 9378 9377 un
10529 9377 9415 1
10530 9379 9378 un
10531 9378 9384 1
10532 9380 9379 un
10533 9379 9381 1
10534 9380 9414 1
10535 9382 9381 1
10536 9381 9417 2
10537 9383 9382 un
10538 9382 9388 un
10539 9384 9383 1
10540 9383 9385 1
10541 9384 9416 2
10542 9386 9385 1
10543 9385 9431 1
10544 9385 9432 1
10545 9387 9386 1
10546 9386 9433 1
10547 9386 9434 1
10548 9388 9387 un
10549 9387 9392 un
10550 9388 9389 un
10551 9390 9389 un
10552 9391 9390 un
10553 9390 9399 un
10554 9392 9391 un
10555 9391 9396 1
10556 9392 9393 1
10557 9394 9393 1
10558 9393 9435 1
10559 9393 9436 1
10560 9395 9394 1
10561 9394 9437 1
10562 9394 9438 1
10563 9396 9395 1
10564 9395 9439 1
10565 9395 9440 1
10566 9396 9397 1
10567 9396 9441 1
10568 9398 9397 1
10569 9397 9442 1
10570 9397 9443 1
10571 9399 9398 un
10572 9398 9403 un
10573 9399 9400 un
10574 9401 9400 un
10575 9400 9444 1
10576 9402 9401 un
10577 9401 9445 1
10578 9403 9402 un
10579 9402 9419 1
10580 9403 9418 1
10581 9404 9405 1
10582 9404 9446 1
10583 9404 9447 1
10584 9405 9448 1
10585 9405 9449 1
10586 9405 9450 1
10587 9406 9451 1
10588 9406 9452 1
10589 9406 9453 1
10590 9407 9454 1
10591 9407 9455 1
10592 9407 9456 1
10593 9408 9457 1
10594 9408 9458 1
10595 9408 9459 1
10596 9409 9460 1
10597 9409 9461 1
10598 9409 9462 1
10599 9410 9463 1
10600 9410 9464 1
10601 9410 9465 1
10602 9411 9466 1
10603 9412 9467 1
10604 9412 9468 1
10605 9412 9469 1
10606 9413 9470 1
10607 9413 9471 1
10608 9413 9472 1
10609 9414 9473 1
10610 9415 9474 1
10611 9418 9475 1
10612 9418 9476 1
10613 9418 9477 1
10614 9419 9478 1
10615 9419 9479 1
10616 9419 9480 1
10617 9481 9482 un
10618 9481 9486 un
10619 9481 9536 1
10620 9483 9482 un
10621 9482 9538 1
10622 9484 9483 un
10623 9483 9490 1
10624 9485 9484 un
10625 9484 9487 1
10626 9486 9485 un
10627 9485 9537 1
10628 9486 9534 1
10629 9488 9487 1
10630 9487 9550 1
10631 9487 9551 1
10632 9489 9488 un
10633 9488 9494 un
10634 9490 9489 1
10635 9489 9491 un
10636 9490 9552 1
10637 9490 9553 1
10638 9492 9491 un
10639 9491 9539 1
10640 9493 9492 un
10641 9492 9540 1
10642 9494 9493 un
10643 9493 9498 un
10644 9494 9495 un
10645 9496 9495 un
10646 9495 9554 1
10647 9497 9496 un
10648 9496 9502 un
10649 9498 9497 un
10650 9497 9499 1
10651 9498 9541 1
10652 9500 9499 1
10653 9499 9506 1
10654 9501 9500 1
10655 9500 9503 1
10656 9502 9501 un
10657 9501 9510 un
10658 9502 9507 un
10659 9504 9503 1
10660 9503 9555 1
10661 9503 9556 1
10662 9505 9504 un
10663 9504 9543 1
10664 9504 9557 1
10665 9506 9505 1
10666 9505 9542 1
10667 9505 9558 1
10668 9506 9559 1
10669 9506 9560 1
10670 9508 9507 un
10671 9507 9545 1
10672 9509 9508 un
10673 9508 9514 1
10674 9510 9509 un
10675 9509 9511 1
10676 9510 9544 1
10677 9512 9511 1
10678 9511 9547 2
10679 9513 9512 un
10680 9512 9518 un
10681 9514 9513 1
10682 9513 9515 1
10683 9514 9546 2
10684 9516 9515 1
10685 9515 9561 1
10686 9515 9562 1
10687 9517 9516 1
10688 9516 9563 1
10689 9516 9564 1
10690 9518 9517 un
10691 9517 9522 un
10692 9518 9519 un
10693 9520 9519 un
10694 9521 9520 un
10695 9520 9529 un
10696 9522 9521 un
10697 9521 9526 1
10698 9522 9523 1
10699 9524 9523 1
10700 9523 9565 1
10701 9523 9566 1
10702 9525 9524 1
10703 9524 9567 1
10704 9524 9568 1
10705 9526 9525 1
10706 9525 9569 1
10707 9525 9570 1
10708 9526 9527 1
10709 9526 9571 1
10710 9528 9527 1
10711 9527 9572 1
10712 9527 9573 1
10713 9529 9528 un
10714 9528 9533 un
10715 9529 9530 un
10716 9531 9530 un
10717 9530 9574 1
10718 9532 9531 un
10719 9531 9575 1
10720 9533 9532 un
10721 9532 9549 1
10722 9533 9548 1
10723 9534 9535 1
10724 9534 9576 1
10725 9534 9577 1
10726 9535 9578 1
10727 9535 9579 1
10728 9535 9580 1
10729 9536 9581 1
10730 9536 9582 1
10731 9536 9583 1
10732 9537 9584 1
10733 9537 9585 1
10734 9537 9586 1
10735 9538 9587 1
10736 9538 9588 1
10737 9538 9589 1
10738 9539 9590 1
10739 9539 9591 1
10740 9539 9592 1
10741 9540 9593 1
10742 9540 9594 1
10743 9540 9595 1
10744 9541 9596 1
10745 9542 9597 1
10746 9542 9598 1
10747 9542 9599 1
10748 9543 9600 1
10749 9543 9601 1
10750 9543 9602 1
10751 9544 9603 1
10752 9545 9604 1
10753 9548 9605 1
10754 9548 9606 1
10755 9548 9607 1
10756 9549 9608 1
10757 9549 9609 1
10758 9549 9610 1
10759 9611 9612 un
10760 9611 9616 un
10761 9611 9666 1
10762 9613 9612 un
10763 9612 9668 1
10764 9614 9613 un
10765 9613 9620 1
10766 9615 9614 un
10767 9614 9617 1
10768 9616 9615 un
10769 9615 9667 1
10770 9616 9664 1
10771 9618 9617 1
10772 9617 9680 1
10773 9617 9681 1
10774 9619 9618 un
10775 9618 9624 un
10776 9620 9619 1
10777 9619 9621 un
10778 9620 9682 1
10779 9620 9683 1
10780 9622 9621 un
10781 9621 9669 1
10782 9623 9622 un
10783 9622 9670 1
10784 9624 9623 un
10785 9623 9628 un
10786 9624 9625 un
10787 9626 9625 un
10788 9625 9684 1
10789 9627 9626 un
10790 9626 9632 un
10791 9628 9627 un
10792 9627 9629 1
10793 9628 9671 1
10794 9630 9629 1
10795 9629 9636 1
10796 9631 9630 1
10797 9630 9633 1
10798 9632 9631 un
10799 9631 9640 un
10800 9632 9637 un
10801 9634 9633 1
10802 9633 9685 1
10803 9633 9686 1
10804 9635 9634 un
10805 9634 9673 1
10806 9634 9687 1
10807 9636 9635 1
10808 9635 9672 1
10809 9635 9688 1
10810 9636 9689 1
10811 9636 9690 1
10812 9638 9637 un
10813 9637 9675 1
10814 9639 9638 un
10815 9638 9644 1
10816 9640 9639 un
10817 9639 9641 1
10818 9640 9674 1
10819 9642 9641 1
10820 9641 9677 2
10821 9643 9642 un
10822 9642 9648 un
10823 9644 9643 1
10824 9643 9645 1
10825 9644 9676 2
10826 9646 9645 1
10827 9645 9691 1
10828 9645 9692 1
10829 9647 9646 1
10830 9646 9693 1
10831 9646 9694 1
10832 9648 9647 un
10833 9647 9652 un
10834 9648 9649 un
10835 9650 9649 un
10836 9651 9650 un
10837 9650 9659 un
10838 9652 9651 un
10839 9651 9656 1
10840 9652 9653 1
10841 9654 9653 1
10842 9653 9695 1
10843 9653 9696 1
10844 9655 9654 1
10845 9654 9697 1
10846 9654 9698 1
10847 9656 9655 1
10848 9655 9699 1
10849 9655 9700 1
10850 9656 9657 1
10851 9656 9701 1
10852 9658 9657 1
10853 9657 9702 1
10854 9657 9703 1
10855 9659 9658 un
10856 9658 9663 un
10857 9659 9660 un
10858 9661 9660 un
10859 9660 9704 1
10860 9662 9661 un
10861 9661 9705 1
10862 9663 9662 un
10863 9662 9679 1
10864 9663 9678 1
10865 9664 9665 1
10866 9664 9706 1
10867 9664 9707 1
10868 9665 9708 1
10869 9665 9709 1
10870 9665 9710 1
10871 9666 9711 1
10872 9666 9712 1
10873 9666 9713 1
10874 9667 9714 1
10875 9667 9715 1
10876 9667 9716 1
10877 9668 9717 1
10878 9668 9718 1
10879 9668 9719 1
10880 9669 9720 1
10881 9669 9721 1
10882 9669 9722 1
10883 9670 9723 1
10884 9670 9724 1
10885 9670 9725 1
10886 9671 9726 1
10887 9672 9727 1
10888 9672 9728 1
10889 9672 9729 1
10890 9673 9730 1
10891 9673 9731 1
10892 9673 9732 1
10893 9674 9733 1
10894 9675 9734 1
10895 9678 9735 1
10896 9678 9736 1
10897 9678 9737 1
10898 9679 9738 1
10899 9679 9739 1
10900 9679 9740 1
10901 9741 9742 am
10902 9746 9741 am
10903 9741 9793 1
10904 9742 9743 am
10905 9742 9801 1
10906 9743 9744 am
10907 9743 9749 1
10908 9744 9745 am
10909 9744 9747 1
10910 9745 9746 am
10911 9745 9802 1
10912 9746 9794 1
10913 9747 9748 am
10914 9747 9753 am
10915 9748 9749 1
10916 9748 9750 am
10917 9749 9803 1
10918 9749 9804 1
10919 9750 9751 am
10920 9750 9763 am
10921 9751 9752 am
10922 9751 9760 am
10923 9752 9753 am
10924 9752 9757 1
10925 9753 9754 1
10926 9754 9755 1
10927 9754 9805 1
10928 9754 9806 1
10929 9755 9756 1
10930 9755 9807 1
10931 9755 9808 1
10932 9756 9757 1
10933 9756 9809 1
10934 9756 9810 1
10935 9757 9758 am
10936 9758 9759 am
10937 9758 9767 1
10938 9759 9760 am
10939 9759 9764 1
10940 9760 9761 am
10941 9761 9762 am
10942 9761 9781 am
10943 9762 9763 am
10944 9762 9779 1
10945 9763 9795 1
10946 9764 9765 1
10947 9764 9811 1
10948 9764 9840 1
10949 9765 9766 am
10950 9765 9771 am
10951 9766 9767 1
10952 9766 9768 am
10953 9767 9812 1
10954 9767 9841 1
10955 9768 9769 am
10956 9768 9799 1
10957 9769 9770 am
10958 9769 9775 1
10959 9770 9771 am
10960 9770 9772 1
10961 9771 9776 am
10962 9772 9773 1
10963 9772 9778 am
10964 9773 9774 1
10965 9773 9813 1
10966 9773 9814 1
10967 9774 9775 1
10968 9774 9815 1
10969 9774 9816 1
10970 9775 9817 1
10971 9775 9818 1
10972 9776 9777 am
10973 9776 9819 1
10974 9777 9778 am
10975 9777 9798 1
10976 9778 9820 1
10977 9779 9780 1
10978 9779 9821 1
10979 9779 9822 1
10980 9780 9781 am
10981 9780 9785 am
10982 9781 9782 am
10983 9782 9783 am
10984 9782 9823 1
10985 9783 9784 am
10986 9783 9792 am
10987 9784 9785 am
10988 9784 9789 am
10989 9785 9786 am
10990 9786 9787 am
10991 9786 9824 1
10992 9787 9788 am
10993 9787 9796 1
10994 9788 9789 am
10995 9788 9825 1
10996 9789 9790 am
10997 9790 9791 am
10998 9790 9800 1
10999 9791 9792 am
11000 9791 9826 1
11001 9792 9827 1
11002 9793 9828 1
11003 9794 9829 1
11004 9794 9830 1
11005 9794 9831 1
11006 9795 9832 1
11007 9796 9797 1
11008 9796 9833 1
11009 9796 9842 1
11010 9797 9834 1
11011 9797 9835 1
11012 9797 9836 1
11013 9798 9837 1
11014 9799 9838 1
11015 9800 9839 1
11016 9843 9844 am
11017 9848 9843 am
11018 9843 9895 1
11019 9844 9845 am
11020 9844 9903 1
11021 9845 9846 am
11022 9845 9851 1
11023 9846 9847 am
11024 9846 9849 1
11025 9847 9848 am
11026 9847 9904 1
11027 9848 9896 1
11028 9849 9850 am
11029 9849 9855 am
11030 9850 9851 1
11031 9850 9852 am
11032 9851 9905 1
11033 9851 9906 1
11034 9852 9853 am
11035 9852 9865 am
11036 9853 9854 am
11037 9853 9862 am
11038 9854 9855 am
11039 9854 9859 1
11040 9855 9856 1
11041 9856 9857 1
11042 9856 9907 1
11043 9856 9908 1
11044 9857 9858 1
11045 9857 9909 1
11046 9857 9910 1
11047 9858 9859 1
11048 9858 9911 1
11049 9858 9912 1
11050 9859 9860 am
11051 9860 9861 am
11052 9860 9869 1
11053 9861 9862 am
11054 9861 9866 1
11055 9862 9863 am
11056 9863 9864 am
11057 9863 9883 am
11058 9864 9865 am
11059 9864 9881 1
11060 9865 9897 1
11061 9866 9867 1
11062 9866 9913 1
11063 9866 9942 1
11064 9867 9868 am
11065 9867 9873 am
11066 9868 9869 1
11067 9868 9870 am
11068 9869 9914 1
11069 9869 9943 1
11070 9870 9871 am
11071 9870 9901 1
11072 9871 9872 am
11073 9871 9877 1
11074 9872 9873 am
11075 9872 9874 1
11076 9873 9878 am
11077 9874 9875 1
11078 9874 9880 am
11079 9875 9876 1
11080 9875 9915 1
11081 9875 9916 1
11082 9876 9877 1
11083 9876 9917 1
11084 9876 9918 1
11085 9877 9919 1
11086 9877 9920 1
11087 9878 9879 am
11088 9878 9921 1
11089 9879 9880 am
11090 9879 9900 1
11091 9880 9922 1
11092 9881 9882 1
11093 9881 9923 1
11094 9881 9924 1
11095 9882 9883 am
11096 9882 9887 am
11097 9883 9884 am
11098 9884 9885 am
11099 9884 9925 1
11100 9885 9886 am
11101 9885 9894 am
11102 9886 9887 am
11103 9886 9891 am
11104 9887 9888 am
11105 9888 9889 am
11106 9888 9926 1
11107 9889 9890 am
11108 9889 9898 1
11109 9890 9891 am
11110 9890 9927 1
11111 9891 9892 am
11112 9892 9893 am
11113 9892 9902 1
11114 9893 9894 am
11115 9893 9928 1
11116 9894 9929 1
11117 9895 9930 1
11118 9896 9931 1
11119 9896 9932 1
11120 9896 9933 1
11121 9897 9934 1
11122 9898 9899 1
11123 9898 9935 1
11124 9898 9944 1
11125 9899 9936 1
11126 9899 9937 1
11127 9899 9938 1
11128 9900 9939 1
11129 9901 9940 1
11130 9902 9941 1
11131 9945 9946 am
11132 9950 9945 am
11133 9945 9997 1
11134 9946 9947 am
11135 9946 10005 1
11136 9947 9948 am
11137 9947 9953 1
11138 9948 9949 am
11139 9948 9951 1
11140 9949 9950 am
11141 9949 10006 1
11142 9950 9998 1
11143 9951 9952 am
11144 9951 9957 am
11145 9952 9953 1
11146 9952 9954 am
11147 9953 10007 1
11148 9953 10008 1
11149 9954 9955 am
11150 9954 9967 am
11151 9955 9956 am
11152 9955 9964 am
11153 9956 9957 am
11154 9956 9961 1
11155 9957 9958 1
11156 9958 9959 1
11157 9958 10009 1
11158 9958 10010 1
11159 9959 9960 1
11160 9959 10011 1
11161 9959 10012 1
11162 9960 9961 1
11163 9960 10013 1
11164 9960 10014 1
11165 9961 9962 am
11166 9962 9963 am
11167 9962 9971 1
11168 9963 9964 am
11169 9963 9968 1
11170 9964 9965 am
11171 9965 9966 am
11172 9965 9985 am
11173 9966 9967 am
11174 9966 9983 1
11175 9967 9999 1
11176 9968 9969 1
11177 9968 10015 1
11178 9968 10044 1
11179 9969 9970 am
11180 9969 9975 am
11181 9970 9971 1
11182 9970 9972 am
11183 9971 10016 1
11184 9971 10045 1
11185 9972 9973 am
11186 9972 10003 1
11187 9973 9974 am
11188 9973 9979 1
11189 9974 9975 am
11190 9974 9976 1
11191 9975 9980 am
11192 9976 9977 1
11193 9976 9982 am
11194 9977 9978 1
11195 9977 10017 1
11196 9977 10018 1
11197 9978 9979 1
11198 9978 10019 1
11199 9978 10020 1
11200 9979 10021 1
11201 9979 10022 1
11202 9980 9981 am
11203 9980 10023 1
11204 9981 9982 am
11205 9981 10002 1
11206 9982 10024 1
11207 9983 9984 1
11208 9983 10025 1
11209 9983 10026 1
11210 9984 9985 am
11211 9984 9989 am
11212 9985 9986 am
11213 9986 9987 am
11214 9986 10027 1
11215 9987 9988 am
11216 9987 9996 am
11217 9988 9989 am
11218 9988 9993 am
11219 9989 9990 am
11220 9990 9991 am
11221 9990 10028 1
11222 9991 9992 am
11223 9991 10000 1
11224 9992 9993 am
11225 9992 10029 1
11226 9993 9994 am
11227 9994 9995 am
11228 9994 10004 1
11229 9995 9996 am
11230 9995 10030 1
11231 9996 10031 1
11232 9997 10032 1
11233 9998 10033 1
11234 9998 10034 1
11235 9998 10035 1
11236 9999 10036 1
11237 10000 10001 1
11238 10000 10037 1
11239 10000 10046 1
11240 10001 10038 1
11241 10001 10039 1
11242 10001 10040 1
11243 10002 10041 1
11244 10003 10042 1
11245 10004 10043 1
11246 10047 10048 am
11247 10052 10047 am
11248 10047 10099 1
11249 10048 10049 am
11250 10048 10107 1
11251 10049 10050 am
11252 10049 10055 1
11253 10050 10051 am
11254 10050 10053 1
11255 10051 10052 am
11256 10051 10108 1
11257 10052 10100 1
11258 10053 10054 am
11259 10053 10059 am
11260 10054 10055 1
11261 10054 10056 am
11262 10055 10109 1
11263 10055 10110 1
11264 10056 10057 am
11265 10056 10069 am
11266 10057 10058 am
11267 10057 10066 am
11268 10058 10059 am
11269 10058 10063 1
11270 10059 10060 1
11271 10060 10061 1
11272 10060 10111 1
11273 10060 10112 1
11274 10061 10062 1
11275 10061 10113 1
11276 10061 10114 1
11277 10062 10063 1
11278 10062 10115 1
11279 10062 10116 1
11280 10063 10064 am
11281 10064 10065 am
11282 10064 10073 1
11283 10065 10066 am
11284 10065 10070 1
11285 10066 10067 am
11286 10067 10068 am
11287 10067 10087 am
11288 10068 10069 am
11289 10068 10085 1
11290 10069 10101 1
11291 10070 10071 1
11292 10070 10117 1
11293 10070 10146 1
11294 10071 10072 am
11295 10071 10077 am
11296 10072 10073 1
11297 10072 10074 am
11298 10073 10118 1
11299 10073 10147 1
11300 10074 10075 am
11301 10074 10105 1
11302 10075 10076 am
11303 10075 10081 1
11304 10076 10077 am
11305 10076 10078 1
11306 10077 10082 am
11307 10078 10079 1
11308 10078 10084 am
11309 10079 10080 1
11310 10079 10119 1
11311 10079 10120 1
11312 10080 10081 1
11313 10080 10121 1
11314 10080 10122 1
11315 10081 10123 1
11316 10081 10124 1
11317 10082 10083 am
11318 10082 10125 1
11319 10083 10084 am
11320 10083 10104 1
11321 10084 10126 1
11322 10085 10086 1
11323 10085 10127 1
11324 10085 10128 1
11325 10086 10087 am
11326 10086 10091 am
11327 10087 10088 am
11328 10088 10089 am
11329 10088 10129 1
11330 10089 10090 am
11331 10089 10098 am
11332 10090 10091 am
11333 10090 10095 am
11334 10091 10092 am
11335 10092 10093 am
11336 10092 10130 1
11337 10093 10094 am
11338 10093 10102 1
11339 10094 10095 am
11340 10094 10131 1
11341 10095 10096 am
11342 10096 10097 am
11343 10096 10106 1
11344 10097 10098 am
11345 10097 10132 1
11346 10098 10133 1
11347 10099 10134 1
11348 10100 10135 1
11349 10100 10136 1
11350 10100 10137 1
11351 10101 10138 1
11352 10102 10103 1
11353 10102 10139 1
11354 10102 10148 1
11355 10103 10140 1
11356 10103 10141 1
11357 10103 10142 1
11358 10104 10143 1
11359 10105 10144 1
11360 10106 10145 1
11361 10149 10150 am
11362 10154 10149 am
11363 10149 10201 1
11364 10150 10151 am
11365 10150 10209 1
11366 10151 10152 am
11367 10151 10157 1
11368 10152 10153 am
11369 10152 10155 1
11370 10153 10154 am
11371 10153 10210 1
11372 10154 10202 1
11373 10155 10156 am
11374 10155 10161 am
11375 10156 10157 1
11376 10156 10158 am
11377 10157 10211 1
11378 10157 10212 1
11379 10158 10159 am
11380 10158 10171 am
11381 10159 10160 am
11382 10159 10168 am
11383 10160 10161 am
11384 10160 10165 1
11385 10161 10162 1
11386 10162 10163 1
11387 10162 10213 1
11388 10162 10214 1
11389 10163 10164 1
11390 10163 10215 1
11391 10163 10216 1
11392 10164 10165 1
11393 10164 10217 1
11394 10164 10218 1
11395 10165 10166 am
11396 10166 10167 am
11397 10166 10175 1
11398 10167 10168 am
11399 10167 10172 1
11400 10168 10169 am
11401 10169 10170 am
11402 10169 10189 am
11403 10170 10171 am
11404 10170 10187 1
11405 10171 10203 1
11406 10172 10173 1
11407 10172 10219 1
11408 10172 10248 1
11409 10173 10174 am
11410 10173 10179 am
11411 10174 10175 1
11412 10174 10176 am
11413 10175 10220 1
11414 10175 10249 1
11415 10176 10177 am
11416 10176 10207 1
11417 10177 10178 am
11418 10177 10183 1
11419 10178 10179 am
11420 10178 10180 1
11421 10179 10184 am
11422 10180 10181 1
11423 10180 10186 am
11424 10181 10182 1
11425 10181 10221 1
11426 10181 10222 1
11427 10182 10183 1
11428 10182 10223 1
11429 10182 10224 1
11430 10183 10225 1
11431 10183 10226 1
11432 10184 10185 am
11433 10184 10227 1
11434 10185 10186 am
11435 10185 10206 1
11436 10186 10228 1
11437 10187 10188 1
11438 10187 10229 1
11439 10187 10230 1
11440 10188 10189 am
11441 10188 10193 am
11442 10189 10190 am
11443 10190 10191 am
11444 10190 10231 1
11445 10191 10192 am
11446 10191 10200 am
11447 10192 10193 am
11448 10192 10197 am
11449 10193 10194 am
11450 10194 10195 am
11451 10194 10232 1
11452 10195 10196 am
11453 10195 10204 1
11454 10196 10197 am
11455 10196 10233 1
11456 10197 10198 am
11457 10198 10199 am
11458 10198 10208 1
11459 10199 10200 am
11460 10199 10234 1
11461 10200 10235 1
11462 10201 10236 1
11463 10202 10237 1
11464 10202 10238 1
11465 10202 10239 1
11466 10203 10240 1
11467 10204 10205 1
11468 10204 10241 1
11469 10204 10250 1
11470 10205 10242 1
11471 10205 10243 1
11472 10205 10244 1
11473 10206 10245 1
11474 10207 10246 1
11475 10208 10247 1
11476 10251 10252 am
11477 10256 10251 am
11478 10251 10303 1
11479 10252 10253 am
11480 10252 10311 1
11481 10253 10254 am
11482 10253 10259 1
11483 10254 10255 am
11484 10254 10257 1
11485 10255 10256 am
11486 10255 10312 1
11487 10256 10304 1
11488 10257 10258 am
11489 10257 10263 am
11490 10258 10259 1
11491 10258 10260 am
11492 10259 10313 1
11493 10259 10314 1
11494 10260 10261 am
11495 10260 10273 am
11496 10261 10262 am
11497 10261 10270 am
11498 10262 10263 am
11499 10262 10267 1
11500 10263 10264 1
11501 10264 10265 1
11502 10264 10315 1
11503 10264 10316 1
11504 10265 10266 1
11505 10265 10317 1
11506 10265 10318 1
11507 10266 10267 1
11508 10266 10319 1
11509 10266 10320 1
11510 10267 10268 am
11511 10268 10269 am
11512 10268 10277 1
11513 10269 10270 am
11514 10269 10274 1
11515 10270 10271 am
11516 10271 10272 am
11517 10271 10291 am
11518 10272 10273 am
11519 10272 10289 1
11520 10273 10305 1
11521 10274 10275 1
11522 10274 10321 1
11523 10274 10350 1
11524 10275 10276 am
11525 10275 10281 am
11526 10276 10277 1
11527 10276 10278 am
11528 10277 10322 1
11529 10277 10351 1
11530 10278 10279 am
11531 10278 10309 1
11532 10279 10280 am
11533 10279 10285 1
11534 10280 10281 am
11535 10280 10282 1
11536 10281 10286 am
11537 10282 10283 1
11538 10282 10288 am
11539 10283 10284 1
11540 10283 10323 1
11541 10283 10324 1
11542 10284 10285 1
11543 10284 10325 1
11544 10284 10326 1
11545 10285 10327 1
11546 10285 10328 1
11547 10286 10287 am
11548 10286 10329 1
11549 10287 10288 am
11550 10287 10308 1
11551 10288 10330 1
11552 10289 10290 1
11553 10289 10331 1
11554 10289 10332 1
11555 10290 10291 am
11556 10290 10295 am
11557 10291 10292 am
11558 10292 10293 am
11559 10292 10333 1
11560 10293 10294 am
11561 10293 10302 am
11562 10294 10295 am
11563 10294 10299 am
11564 10295 10296 am
11565 10296 10297 am
11566 10296 10334 1
11567 10297 10298 am
11568 10297 10306 1
11569 10298 10299 am
11570 10298 10335 1
11571 10299 10300 am
11572 10300 10301 am
11573 10300 10310 1
11574 10301 10302 am
11575 10301 10336 1
11576 10302 10337 1
11577 10303 10338 1
11578 10304 10339 1
11579 10304 10340 1
11580 10304 10341 1
11581 10305 10342 1
11582 10306 10307 1
11583 10306 10343 1
11584 10306 10352 1
11585 10307 10344 1
11586 10307 10345 1
11587 10307 10346 1
11588 10308 10347 1
11589 10309 10348 1
11590 10310 10349 1
11591 10353 10354 am
11592 10358 10353 am
11593 10353 10405 1
11594 10354 10355 am
11595 10354 10413 1
11596 10355 10356 am
11597 10355 10361 1
11598 10356 10357 am
11599 10356 10359 1
11600 10357 10358 am
11601 10357 10414 1
11602 10358 10406 1
11603 10359 10360 am
11604 10359 10365 am
11605 10360 10361 1
11606 10360 10362 am
11607 10361 10415 1
11608 10361 10416 1
11609 10362 10363 am
11610 10362 10375 am
11611 10363 10364 am
11612 10363 10372 am
11613 10364 10365 am
11614 10364 10369 1
11615 10365 10366 1
11616 10366 10367 1
11617 10366 10417 1
11618 10366 10418 1
11619 10367 10368 1
11620 10367 10419 1
11621 10367 10420 1
11622 10368 10369 1
11623 10368 10421 1
11624 10368 10422 1
11625 10369 10370 am
11626 10370 10371 am
11627 10370 10379 1
11628 10371 10372 am
11629 10371 10376 1
11630 10372 10373 am
11631 10373 10374 am
11632 10373 10393 am
11633 10374 10375 am
11634 10374 10391 1
11635 10375 10407 1
11636 10376 10377 1
11637 10376 10423 1
11638 10376 10452 1
11639 10377 10378 am
11640 10377 10383 am
11641 10378 10379 1
11642 10378 10380 am
11643 10379 10424 1
11644 10379 10453 1
11645 10380 10381 am
11646 10380 10411 1
11647 10381 10382 am
11648 10381 10387 1
11649 10382 10383 am
11650 10382 10384 1
11651 10383 10388 am
11652 10384 10385 1
11653 10384 10390 am
11654 10385 10386 1
11655 10385 10425 1
11656 10385 10426 1
11657 10386 10387 1
11658 10386 10427 1
11659 10386 10428 1
11660 10387 10429 1
11661 10387 10430 1
11662 10388 10389 am
11663 10388 10431 1
11664 10389 10390 am
11665 10389 10410 1
11666 10390 10432 1
11667 10391 10392 1
11668 10391 10433 1
11669 10391 10434 1
11670 10392 10393 am
11671 10392 10397 am
11672 10393 10394 am
11673 10394 10395 am
11674 10394 10435 1
11675 10395 10396 am
11676 10395 10404 am
11677 10396 10397 am
11678 10396 10401 am
11679 10397 10398 am
11680 10398 10399 am
11681 10398 10436 1
11682 10399 10400 am
11683 10399 10408 1
11684 10400 10401 am
11685 10400 10437 1
11686 10401 10402 am
11687 10402 10403 am
11688 10402 10412 1
11689 10403 10404 am
11690 10403 10438 1
11691 10404 10439 1
11692 10405 10440 1
11693 10406 10441 1
11694 10406 10442 1
11695 10406 10443 1
11696 10407 10444 1
11697 10408 10409 1
11698 10408 10445 1
11699 10408 10454 1
11700 10409 10446 1
11701 10409 10447 1
11702 10409 10448 1
11703 10410 10449 1
11704 10411 10450 1
11705 10412 10451 1
11706 10455 10456 am
11707 10460 10455 am
11708 10455 10507 1
11709 10456 10457 am
11710 10456 10515 1
11711 10457 10458 am
11712 10457 10463 1
11713 10458 10459 am
11714 10458 10461 1
11715 10459 10460 am
11716 10459 10516 1
11717 10460 10508 1
11718 10461 10462 am
11719 10461 10467 am
11720 10462 10463 1
11721 10462 10464 am
11722 10463 10517 1
11723 10463 10518 1
11724 10464 10465 am
11725 10464 10477 am
11726 10465 10466 am
11727 10465 10474 am
11728 10466 10467 am
11729 10466 10471 1
11730 10467 10468 1
11731 10468 10469 1
11732 10468 10519 1
11733 10468 10520 1
11734 10469 10470 1
11735 10469 10521 1
11736 10469 10522 1
11737 10470 10471 1
11738 10470 10523 1
11739 10470 10524 1
11740 10471 10472 am
11741 10472 10473 am
11742 10472 10481 1
11743 10473 10474 am
11744 10473 10478 1
11745 10474 10475 am
11746 10475 10476 am
11747 10475 10495 am
11748 10476 10477 am
11749 10476 10493 1
11750 10477 10509 1
11751 10478 10479 1
11752 10478 10525 1
11753 10478 10554 1
11754 10479 10480 am
11755 10479 10485 am
11756 10480 10481 1
11757 10480 10482 am
11758 10481 10526 1
11759 10481 10555 1
11760 10482 10483 am
11761 10482 10513 1
11762 10483 10484 am
11763 10483 10489 1
11764 10484 10485 am
11765 10484 10486 1
11766 10485 10490 am
11767 10486 10487 1
11768 10486 10492 am
11769 10487 10488 1
11770 10487 10527 1
11771 10487 10528 1
11772 10488 10489 1
11773 10488 10529 1
11774 10488 10530 1
11775 10489 10531 1
11776 10489 10532 1
11777 10490 10491 am
11778 10490 10533 1
11779 10491 10492 am
11780 10491 10512 1
11781 10492 10534 1
11782 10493 10494 1
11783 10493 10535 1
11784 10493 10536 1
11785 10494 10495 am
11786 10494 10499 am
11787 10495 10496 am
11788 10496 10497 am
11789 10496 10537 1
11790 10497 10498 am
11791 10497 10506 am
11792 10498 10499 am
11793 10498 10503 am
11794 10499 10500 am
11795 10500 10501 am
11796 10500 10538 1
11797 10501 10502 am
11798 10501 10510 1
11799 10502 10503 am
11800 10502 10539 1
11801 10503 10504 am
11802 10504 10505 am
11803 10504 10514 1
11804 10505 10506 am
11805 10505 10540 1
11806 10506 10541 1
11807 10507 10542 1
11808 10508 10543 1
11809 10508 10544 1
11810 10508 10545 1
11811 10509 10546 1
11812 10510 10511 1
11813 10510 10547 1
11814 10510 10556 1
11815 10511 10548 1
11816 10511 10549 1
11817 10511 10550 1
11818 10512 10551 1
11819 10513 10552 1
11820 10514 10553 1
11821 10557 10558 am
11822 10562 10557 am
11823 10557 10609 1
11824 10558 10559 am
11825 10558 10617 1
11826 10559 10560 am
11827 10559 10565 1
11828 10560 10561 am
11829 10560 10563 1
11830 10561 10562 am
11831 10561 10618 1
11832 10562 10610 1
11833 10563 10564 am
11834 10563 10569 am
11835 10564 10565 1
11836 10564 10566 am
11837 10565 10619 1
11838 10565 10620 1
11839 10566 10567 am
11840 10566 10579 am
11841 10567 10568 am
11842 10567 10576 am
11843 10568 10569 am
11844 10568 10573 1
11845 10569 10570 1
11846 10570 10571 1
11847 10570 10621 1
11848 10570 10622 1
11849 10571 10572 1
11850 10571 10623 1
11851 10571 10624 1
11852 10572 10573 1
11853 10572 10625 1
11854 10572 10626 1
11855 10573 10574 am
11856 10574 10575 am
11857 10574 10583 1
11858 10575 10576 am
11859 10575 10580 1
11860 10576 10577 am
11861 10577 10578 am
11862 10577 10597 am
11863 10578 10579 am
11864 10578 10595 1
11865 10579 10611 1
11866 10580 10581 1
11867 10580 10627 1
11868 10580 10656 1
11869 10581 10582 am
11870 10581 10587 am
11871 10582 10583 1
11872 10582 10584 am
11873 10583 10628 1
11874 10583 10657 1
11875 10584 10585 am
11876 10584 10615 1
11877 10585 10586 am
11878 10585 10591 1
11879 10586 10587 am
11880 10586 10588 1
11881 10587 10592 am
11882 10588 10589 1
11883 10588 10594 am
11884 10589 10590 1
11885 10589 10629 1
11886 10589 10630 1
11887 10590 10591 1
11888 10590 10631 1
11889 10590 10632 1
11890 10591 10633 1
11891 10591 10634 1
11892 10592 10593 am
11893 10592 10635 1
11894 10593 10594 am
11895 10593 10614 1
11896 10594 10636 1
11897 10595 10596 1
11898 10595 10637 1
11899 10595 10638 1
11900 10596 10597 am
11901 10596 10601 am
11902 10597 10598 am
11903 10598 10599 am
11904 10598 10639 1
11905 10599 10600 am
11906 10599 10608 am
11907 10600 10601 am
11908 10600 10605 am
11909 10601 10602 am
11910 10602 10603 am
11911 10602 10640 1
11912 10603 10604 am
11913 10603 10612 1
11914 10604 10605 am
11915 10604 10641 1
11916 10605 10606 am
11917 10606 10607 am
11918 10606 10616 1
11919 10607 10608 am
11920 10607 10642 1
11921 10608 10643 1
11922 10609 10644 1
11923 10610 10645 1
11924 10610 10646 1
11925 10610 10647 1
11926 10611 10648 1
11927 10612 10613 1
11928 10612 10649 1
11929 10612 10658 1
11930 10613 10650 1
11931 10613 10651 1
11932 10613 10652 1
11933 10614 10653 1
11934 10615 10654 1
11935 10616 10655 1
11936 10659 10660 am
11937 10664 10659 am
11938 10659 10711 1
11939 10660 10661 am
11940 10660 10719 1
11941 10661 10662 am
11942 10661 10667 1
11943 10662 10663 am
11944 10662 10665 1
11945 10663 10664 am
11946 10663 10720 1
11947 10664 10712 1
11948 10665 10666 am
11949 10665 10671 am
11950 10666 10667 1
11951 10666 10668 am
11952 10667 10721 1
11953 10667 10722 1
11954 10668 10669 am
11955 10668 10681 am
11956 10669 10670 am
11957 10669 10678 am
11958 10670 10671 am
11959 10670 10675 1
11960 10671 10672 1
11961 10672 10673 1
11962 10672 10723 1
11963 10672 10724 1
11964 10673 10674 1
11965 10673 10725 1
11966 10673 10726 1
11967 10674 10675 1
11968 10674 10727 1
11969 10674 10728 1
11970 10675 10676 am
11971 10676 10677 am
11972 10676 10685 1
11973 10677 10678 am
11974 10677 10682 1
11975 10678 10679 am
11976 10679 10680 am
11977 10679 10699 am
11978 10680 10681 am
11979 10680 10697 1
11980 10681 10713 1
11981 10682 10683 1
11982 10682 10729 1
11983 10682 10758 1
11984 10683 10684 am
11985 10683 10689 am
11986 10684 10685 1
11987 10684 10686 am
11988 10685 10730 1
11989 10685 10759 1
11990 10686 10687 am
11991 10686 10717 1
11992 10687 10688 am
11993 10687 10693 1
11994 10688 10689 am
11995 10688 10690 1
11996 10689 10694 am
11997 10690 10691 1
11998 10690 10696 am
11999 10691 10692 1
12000 10691 10731 1
12001 10691 10732 1
12002 10692 10693 1
12003 10692 10733 1
12004 10692 10734 1
12005 10693 10735 1
12006 10693 10736 1
12007 10694 10695 am
12008 10694 10737 1
12009 10695 10696 am
12010 10695 10716 1
12011 10696 10738 1
12012 10697 10698 1
12013 10697 10739 1
12014 10697 10740 1
12015 10698 10699 am
12016 10698 10703 am
12017 10699 10700 am
12018 10700 10701 am
12019 10700 10741 1
12020 10701 10702 am
12021 10701 10710 am
12022 10702 10703 am
12023 10702 10707 am
12024 10703 10704 am
12025 10704 10705 am
12026 10704 10742 1
12027 10705 10706 am
12028 10705 10714 1
12029 10706 10707 am
12030 10706 10743 1
12031 10707 10708 am
12032 10708 10709 am
12033 10708 10718 1
12034 10709 10710 am
12035 10709 10744 1
12036 10710 10745 1
12037 10711 10746 1
12038 10712 10747 1
12039 10712 10748 1
12040 10712 10749 1
12041 10713 10750 1
12042 10714 10715 1
12043 10714 10751 1
12044 10714 10760 1
12045 10715 10752 1
12046 10715 10753 1
12047 10715 10754 1
12048 10716 10755 1
12049 10717 10756 1
12050 10718 10757 1
12051 10761 10762 am
12052 10766 10761 am
12053 10761 10813 1
12054 10762 10763 am
12055 10762 10821 1
12056 10763 10764 am
12057 10763 10769 1
12058 10764 10765 am
12059 10764 10767 1
12060 10765 10766 am
12061 10765 10822 1
12062 10766 10814 1
12063 10767 10768 am
12064 10767 10773 am
12065 10768 10769 1
12066 10768 10770 am
12067 10769 10823 1
12068 10769 10824 1
12069 10770 10771 am
12070 10770 10783 am
12071 10771 10772 am
12072 10771 10780 am
12073 10772 10773 am
12074 10772 10777 1
12075 10773 10774 1
12076 10774 10775 1
12077 10774 10825 1
12078 10774 10826 1
12079 10775 10776 1
12080 10775 10827 1
12081 10775 10828 1
12082 10776 10777 1
12083 10776 10829 1
12084 10776 10830 1
12085 10777 10778 am
12086 10778 10779 am
12087 10778 10787 1
12088 10779 10780 am
12089 10779 10784 1
12090 10780 10781 am
12091 10781 10782 am
12092 10781 10801 am
12093 10782 10783 am
12094 10782 10799 1
12095 10783 10815 1
12096 10784 10785 1
12097 10784 10831 1
12098 10784 10860 1
12099 10785 10786 am
12100 10785 10791 am
12101 10786 10787 1
12102 10786 10788 am
12103 10787 10832 1
12104 10787 10861 1
12105 10788 10789 am
12106 10788 10819 1
12107 10789 10790 am
12108 10789 10795 1
12109 10790 10791 am
12110 10790 10792 1
12111 10791 10796 am
12112 10792 10793 1
12113 10792 10798 am
12114 10793 10794 1
12115 10793 10833 1
12116 10793 10834 1
12117 10794 10795 1
12118 10794 10835 1
12119 10794 10836 1
12120 10795 10837 1
12121 10795 10838 1
12122 10796 10797 am
12123 10796 10839 1
12124 10797 10798 am
12125 10797 10818 1
12126 10798 10840 1
12127 10799 10800 1
12128 10799 10841 1
12129 10799 10842 1
12130 10800 10801 am
12131 10800 10805 am
12132 10801 10802 am
12133 10802 10803 am
12134 10802 10843 1
12135 10803 10804 am
12136 10803 10812 am
12137 10804 10805 am
12138 10804 10809 am
12139 10805 10806 am
12140 10806 10807 am
12141 10806 10844 1
12142 10807 10808 am
12143 10807 10816 1
12144 10808 10809 am
12145 10808 10845 1
12146 10809 10810 am
12147 10810 10811 am
12148 10810 10820 1
12149 10811 10812 am
12150 10811 10846 1
12151 10812 10847 1
12152 10813 10848 1
12153 10814 10849 1
12154 10814 10850 1
12155 10814 10851 1
12156 10815 10852 1
12157 10816 10817 1
12158 10816 10853 1
12159 10816 10862 1
12160 10817 10854 1
12161 10817 10855 1
12162 10817 10856 1
12163 10818 10857 1
12164 10819 10858 1
12165 10820 10859 1
12166 10863 10864 am
12167 10868 10863 am
12168 10863 10915 1
12169 10864 10865 am
12170 10864 10923 1
12171 10865 10866 am
12172 10865 10871 1
12173 10866 10867 am
12174 10866 10869 1
12175 10867 10868 am
12176 10867 10924 1
12177 10868 10916 1
12178 10869 10870 am
12179 10869 10875 am
12180 10870 10871 1
12181 10870 10872 am
12182 10871 10925 1
12183 10871 10926 1
12184 10872 10873 am
12185 10872 10885 am
12186 10873 10874 am
12187 10873 10882 am
12188 10874 10875 am
12189 10874 10879 1
12190 10875 10876 1
12191 10876 10877 1
12192 10876 10927 1
12193 10876 10928 1
12194 10877 10878 1
12195 10877 10929 1
12196 10877 10930 1
12197 10878 10879 1
12198 10878 10931 1
12199 10878 10932 1
12200 10879 10880 am
12201 10880 10881 am
12202 10880 10889 1
12203 10881 10882 am
12204 10881 10886 1
12205 10882 10883 am
12206 10883 10884 am
12207 10883 10903 am
12208 10884 10885 am
12209 10884 10901 1
12210 10885 10917 1
12211 10886 10887 1
12212 10886 10933 1
12213 10886 10962 1
12214 10887 10888 am
12215 10887 10893 am
12216 10888 10889 1
12217 10888 10890 am
12218 10889 10934 1
12219 10889 10963 1
12220 10890 10891 am
12221 10890 10921 1
12222 10891 10892 am
12223 10891 10897 1
12224 10892 10893 am
12225 10892 10894 1
12226 10893 10898 am
12227 10894 10895 1
12228 10894 10900 am
12229 10895 10896 1
12230 10895 10935 1
12231 10895 10936 1
12232 10896 10897 1
12233 10896 10937 1
12234 10896 10938 1
12235 10897 10939 1
12236 10897 10940 1
12237 10898 10899 am
12238 10898 10941 1
12239 10899 10900 am
12240 10899 10920 1
12241 10900 10942 1
12242 10901 10902 1
12243 10901 10943 1
12244 10901 10944 1
12245 10902 10903 am
12246 10902 10907 am
12247 10903 10904 am
12248 10904 10905 am
12249 10904 10945 1
12250 10905 10906 am
12251 10905 10914 am
12252 10906 10907 am
12253 10906 10911 am
12254 10907 10908 am
12255 10908 10909 am
12256 10908 10946 1
12257 10909 10910 am
12258 10909 10918 1
12259 10910 10911 am
12260 10910 10947 1
12261 10911 10912 am
12262 10912 10913 am
12263 10912 10922 1
12264 10913 10914 am
12265 10913 10948 1
12266 10914 10949 1
12267 10915 10950 1
12268 10916 10951 1
12269 10916 10952 1
12270 10916 10953 1
12271 10917 10954 1
12272 10918 10919 1
12273 10918 10955 1
12274 10918 10964 1
12275 10919 10956 1
12276 10919 10957 1
12277 10919 10958 1
12278 10920 10959 1
12279 10921 10960 1
12280 10922 10961 1
12281 10965 10966 am
12282 10970 10965 am
12283 10965 11017 1
12284 10966 10967 am
12285 10966 11025 1
12286 10967 10968 am
12287 10967 10973 1
12288 10968 10969 am
12289 10968 10971 1
12290 10969 10970 am
12291 10969 11026 1
12292 10970 11018 1
12293 10971 10972 am
12294 10971 10977 am
12295 10972 10973 1
12296 10972 10974 am
12297 10973 11027 1
12298 10973 11028 1
12299 10974 10975 am
12300 10974 10987 am
12301 10975 10976 am
12302 10975 10984 am
12303 10976 10977 am
12304 10976 10981 1
12305 10977 10978 1
12306 10978 10979 1
12307 10978 11029 1
12308 10978 11030 1
12309 10979 10980 1
12310 10979 11031 1
12311 10979 11032 1
12312 10980 10981 1
12313 10980 11033 1
12314 10980 11034 1
12315 10981 10982 am
12316 10982 10983 am
12317 10982 10991 1
12318 10983 10984 am
12319 10983 10988 1
12320 10984 10985 am
12321 10985 10986 am
12322 10985 11005 am
12323 10986 10987 am
12324 10986 11003 1
12325 10987 11019 1
12326 10988 10989 1
12327 10988 11035 1
12328 10988 11064 1
12329 10989 10990 am
12330 10989 10995 am
12331 10990 10991 1
12332 10990 10992 am
12333 10991 11036 1
12334 10991 11065 1
12335 10992 10993 am
12336 10992 11023 1
12337 10993 10994 am
12338 10993 10999 1
12339 10994 10995 am
12340 10994 10996 1
12341 10995 11000 am
12342 10996 10997 1
12343 10996 11002 am
12344 10997 10998 1
12345 10997 11037 1
12346 10997 11038 1
12347 10998 10999 1
12348 10998 11039 1
12349 10998 11040 1
12350 10999 11041 1
12351 10999 11042 1
12352 11000 11001 am
12353 11000 11043 1
12354 11001 11002 am
12355 11001 11022 1
12356 11002 11044 1
12357 11003 11004 1
12358 11003 11045 1
12359 11003 11046 1
12360 11004 11005 am
12361 11004 11009 am
12362 11005 11006 am
12363 11006 11007 am
12364 11006 11047 1
12365 11007 11008 am
12366 11007 11016 am
12367 11008 11009 am
12368 11008 11013 am
12369 11009 11010 am
12370 11010 11011 am
12371 11010 11048 1
12372 11011 11012 am
12373 11011 11020 1
12374 11012 11013 am
12375 11012 11049 1
12376 11013 11014 am
12377 11014 11015 am
12378 11014 11024 1
12379 11015 11016 am
12380 11015 11050 1
12381 11016 11051 1
12382 11017 11052 1
12383 11018 11053 1
12384 11018 11054 1
12385 11018 11055 1
12386 11019 11056 1
12387 11020 11021 1
12388 11020 11057 1
12389 11020 11066 1
12390 11021 11058 1
12391 11021 11059 1
12392 11021 11060 1
12393 11022 11061 1
12394 11023 11062 1
12395 11024 11063 1
12396 11067 11068 am
12397 11072 11067 am
12398 11067 11119 1
12399 11068 11069 am
12400 11068 11127 1
12401 11069 11070 am
12402 11069 11075 1
12403 11070 11071 am
12404 11070 11073 1
12405 11071 11072 am
12406 11071 11128 1
12407 11072 11120 1
12408 11073 11074 am
12409 11073 11079 am
12410 11074 11075 1
12411 11074 11076 am
12412 11075 11129 1
12413 11075 11130 1
12414 11076 11077 am
12415 11076 11089 am
12416 11077 11078 am
12417 11077 11086 am
12418 11078 11079 am
12419 11078 11083 1
12420 11079 11080 1
12421 11080 11081 1
12422 11080 11131 1
12423 11080 11132 1
12424 11081 11082 1
12425 11081 11133 1
12426 11081 11134 1
12427 11082 11083 1
12428 11082 11135 1
12429 11082 11136 1
12430 11083 11084 am
12431 11084 11085 am
12432 11084 11093 1
12433 11085 11086 am
12434 11085 11090 1
12435 11086 11087 am
12436 11087 11088 am
12437 11087 11107 am
12438 11088 11089 am
12439 11088 11105 1
12440 11089 11121 1
12441 11090 11091 1
12442 11090 11137 1
12443 11090 11166 1
12444 11091 11092 am
12445 11091 11097 am
12446 11092 11093 1
12447 11092 11094 am
12448 11093 11138 1
12449 11093 11167 1
12450 11094 11095 am
12451 11094 11125 1
12452 11095 11096 am
12453 11095 11101 1
12454 11096 11097 am
12455 11096 11098 1
12456 11097 11102 am
12457 11098 11099 1
12458 11098 11104 am
12459 11099 11100 1
12460 11099 11139 1
12461 11099 11140 1
12462 11100 11101 1
12463 11100 11141 1
12464 11100 11142 1
12465 11101 11143 1
12466 11101 11144 1
12467 11102 11103 am
12468 11102 11145 1
12469 11103 11104 am
12470 11103 11124 1
12471 11104 11146 1
12472 11105 11106 1
12473 11105 11147 1
12474 11105 11148 1
12475 11106 11107 am
12476 11106 11111 am
12477 11107 11108 am
12478 11108 11109 am
12479 11108 11149 1
12480 11109 11110 am
12481 11109 11118 am
12482 11110 11111 am
12483 11110 11115 am
12484 11111 11112 am
12485 11112 11113 am
12486 11112 11150 1
12487 11113 11114 am
12488 11113 11122 1
12489 11114 11115 am
12490 11114 11151 1
12491 11115 11116 am
12492 11116 11117 am
12493 11116 11126 1
12494 11117 11118 am
12495 11117 11152 1
12496 11118 11153 1
12497 11119 11154 1
12498 11120 11155 1
12499 11120 11156 1
12500 11120 11157 1
12501 11121 11158 1
12502 11122 11123 1
12503 11122 11159 1
12504 11122 11168 1
12505 11123 11160 1
12506 11123 11161 1
12507 11123 11162 1
12508 11124 11163 1
12509 11125 11164 1
12510 11126 11165 1
12511 11169 11170 am
12512 11174 11169 am
12513 11169 11221 1
12514 11170 11171 am
12515 11170 11229 1
12516 11171 11172 am
12517 11171 11177 1
12518 11172 11173 am
12519 11172 11175 1
12520 11173 11174 am
12521 11173 11230 1
12522 11174 11222 1
12523 11175 11176 am
12524 11175 11181 am
12525 11176 11177 1
12526 11176 11178 am
12527 11177 11231 1
12528 11177 11232 1
12529 11178 11179 am
12530 11178 11191 am
12531 11179 11180 am
12532 11179 11188 am
12533 11180 11181 am
12534 11180 11185 1
12535 11181 11182 1
12536 11182 11183 1
12537 11182 11233 1
12538 11182 11234 1
12539 11183 11184 1
12540 11183 11235 1
12541 11183 11236 1
12542 11184 11185 1
12543 11184 11237 1
12544 11184 11238 1
12545 11185 11186 am
12546 11186 11187 am
12547 11186 11195 1
12548 11187 11188 am
12549 11187 11192 1
12550 11188 11189 am
12551 11189 11190 am
12552 11189 11209 am
12553 11190 11191 am
12554 11190 11207 1
12555 11191 11223 1
12556 11192 11193 1
12557 11192 11239 1
12558 11192 11268 1
12559 11193 11194 am
12560 11193 11199 am
12561 11194 11195 1
12562 11194 11196 am
12563 11195 11240 1
12564 11195 11269 1
12565 11196 11197 am
12566 11196 11227 1
12567 11197 11198 am
12568 11197 11203 1
12569 11198 11199 am
12570 11198 11200 1
12571 11199 11204 am
12572 11200 11201 1
12573 11200 11206 am
12574 11201 11202 1
12575 11201 11241 1
12576 11201 11242 1
12577 11202 11203 1
12578 11202 11243 1
12579 11202 11244 1
12580 11203 11245 1
12581 11203 11246 1
12582 11204 11205 am
12583 11204 11247 1
12584 11205 11206 am
12585 11205 11226 1
12586 11206 11248 1
12587 11207 11208 1
12588 11207 11249 1
12589 11207 11250 1
12590 11208 11209 am
12591 11208 11213 am
12592 11209 11210 am
12593 11210 11211 am
12594 11210 11251 1
12595 11211 11212 am
12596 11211 11220 am
12597 11212 11213 am
12598 11212 11217 am
12599 11213 11214 am
12600 11214 11215 am
12601 11214 11252 1
12602 11215 11216 am
12603 11215 11224 1
12604 11216 11217 am
12605 11216 11253 1
12606 11217 11218 am
12607 11218 11219 am
12608 11218 11228 1
12609 11219 11220 am
12610 11219 11254 1
12611 11220 11255 1
12612 11221 11256 1
12613 11222 11257 1
12614 11222 11258 1
12615 11222 11259 1
12616 11223 11260 1
12617 11224 11225 1
12618 11224 11261 1
12619 11224 11270 1
12620 11225 11262 1
12621 11225 11263 1
12622 11225 11264 1
12623 11226 11265 1
12624 11227 11266 1
12625 11228 11267 1
12626 11271 11272 am
12627 11276 11271 am
12628 11271 11323 1
12629 11272 11273 am
12630 11272 11331 1
12631 11273 11274 am
12632 11273 11279 1
12633 11274 11275 am
12634 11274 11277 1
12635 11275 11276 am
12636 11275 11332 1
12637 11276 11324 1
12638 11277 11278 am
12639 11277 11283 am
12640 11278 11279 1
12641 11278 11280 am
12642 11279 11333 1
12643 11279 11334 1
12644 11280 11281 am
12645 11280 11293 am
12646 11281 11282 am
12647 11281 11290 am
12648 11282 11283 am
12649 11282 11287 1
12650 11283 11284 1
12651 11284 11285 1
12652 11284 11335 1
12653 11284 11336 1
12654 11285 11286 1
12655 11285 11337 1
12656 11285 11338 1
12657 11286 11287 1
12658 11286 11339 1
12659 11286 11340 1
12660 11287 11288 am
12661 11288 11289 am
12662 11288 11297 1
12663 11289 11290 am
12664 11289 11294 1
12665 11290 11291 am
12666 11291 11292 am
12667 11291 11311 am
12668 11292 11293 am
12669 11292 11309 1
12670 11293 11325 1
12671 11294 11295 1
12672 11294 11341 1
12673 11294 11370 1
12674 11295 11296 am
12675 11295 11301 am
12676 11296 11297 1
12677 11296 11298 am
12678 11297 11342 1
12679 11297 11371 1
12680 11298 11299 am
12681 11298 11329 1
12682 11299 11300 am
12683 11299 11305 1
12684 11300 11301 am
12685 11300 11302 1
12686 11301 11306 am
12687 11302 11303 1
12688 11302 11308 am
12689 11303 11304 1
12690 11303 11343 1
12691 11303 11344 1
12692 11304 11305 1
12693 11304 11345 1
12694 11304 11346 1
12695 11305 11347 1
12696 11305 11348 1
12697 11306 11307 am
12698 11306 11349 1
12699 11307 11308 am
12700 11307 11328 1
12701 11308 11350 1
12702 11309 11310 1
12703 11309 11351 1
12704 11309 11352 1
12705 11310 11311 am
12706 11310 11315 am
12707 11311 11312 am
12708 11312 11313 am
12709 11312 11353 1
12710 11313 11314 am
12711 11313 11322 am
12712 11314 11315 am
12713 11314 11319 am
12714 11315 11316 am
12715 11316 11317 am
12716 11316 11354 1
12717 11317 11318 am
12718 11317 11326 1
12719 11318 11319 am
12720 11318 11355 1
12721 11319 11320 am
12722 11320 11321 am
12723 11320 11330 1
12724 11321 11322 am
12725 11321 11356 1
12726 11322 11357 1
12727 11323 11358 1
12728 11324 11359 1
12729 11324 11360 1
12730 11324 11361 1
12731 11325 11362 1
12732 11326 11327 1
12733 11326 11363 1
12734 11326 11372 1
12735 11327 11364 1
12736 11327 11365 1
12737 11327 11366 1
12738 11328 11367 1
12739 11329 11368 1
12740 11330 11369 1
12741 11373 11374 am
12742 11378 11373 am
12743 11373 11425 1
12744 11374 11375 am
12745 11374 11433 1
12746 11375 11376 am
12747 11375 11381 1
12748 11376 11377 am
12749 11376 11379 1
12750 11377 11378 am
12751 11377 11434 1
12752 11378 11426 1
12753 11379 11380 am
12754 11379 11385 am
12755 11380 11381 1
12756 11380 11382 am
12757 11381 11435 1
12758 11381 11436 1
12759 11382 11383 am
12760 11382 11395 am
12761 11383 11384 am
12762 11383 11392 am
12763 11384 11385 am
12764 11384 11389 1
12765 11385 11386 1
12766 11386 11387 1
12767 11386 11437 1
12768 11386 11438 1
12769 11387 11388 1
12770 11387 11439 1
12771 11387 11440 1
12772 11388 11389 1
12773 11388 11441 1
12774 11388 11442 1
12775 11389 11390 am
12776 11390 11391 am
12777 11390 11399 1
12778 11391 11392 am
12779 11391 11396 1
12780 11392 11393 am
12781 11393 11394 am
12782 11393 11413 am
12783 11394 11395 am
12784 11394 11411 1
12785 11395 11427 1
12786 11396 11397 1
12787 11396 11443 1
12788 11396 11472 1
12789 11397 11398 am
12790 11397 11403 am
12791 11398 11399 1
12792 11398 11400 am
12793 11399 11444 1
12794 11399 11473 1
12795 11400 11401 am
12796 11400 11431 1
12797 11401 11402 am
12798 11401 11407 1
12799 11402 11403 am
12800 11402 11404 1
12801 11403 11408 am
12802 11404 11405 1
12803 11404 11410 am
12804 11405 11406 1
12805 11405 11445 1
12806 11405 11446 1
12807 11406 11407 1
12808 11406 11447 1
12809 11406 11448 1
12810 11407 11449 1
12811 11407 11450 1
12812 11408 11409 am
12813 11408 11451 1
12814 11409 11410 am
12815 11409 11430 1
12816 11410 11452 1
12817 11411 11412 1
12818 11411 11453 1
12819 11411 11454 1
12820 11412 11413 am
12821 11412 11417 am
12822 11413 11414 am
12823 11414 11415 am
12824 11414 11455 1
12825 11415 11416 am
12826 11415 11424 am
12827 11416 11417 am
12828 11416 11421 am
12829 11417 11418 am
12830 11418 11419 am
12831 11418 11456 1
12832 11419 11420 am
12833 11419 11428 1
12834 11420 11421 am
12835 11420 11457 1
12836 11421 11422 am
12837 11422 11423 am
12838 11422 11432 1
12839 11423 11424 am
12840 11423 11458 1
12841 11424 11459 1
12842 11425 11460 1
12843 11426 11461 1
12844 11426 11462 1
12845 11426 11463 1
12846 11427 11464 1
12847 11428 11429 1
12848 11428 11465 1
12849 11428 11474 1
12850 11429 11466 1
12851 11429 11467 1
12852 11429 11468 1
12853 11430 11469 1
12854 11431 11470 1
12855 11432 11471 1
12856 11475 11476 am
12857 11480 11475 am
12858 11475 11527 1
12859 11476 11477 am
12860 11476 11535 1
12861 11477 11478 am
12862 11477 11483 1
12863 11478 11479 am
12864 11478 11481 1
12865 11479 11480 am
12866 11479 11536 1
12867 11480 11528 1
12868 11481 11482 am
12869 11481 11487 am
12870 11482 11483 1
12871 11482 11484 am
12872 11483 11537 1
12873 11483 11538 1
12874 11484 11485 am
12875 11484 11497 am
12876 11485 11486 am
12877 11485 11494 am
12878 11486 11487 am
12879 11486 11491 1
12880 11487 11488 1
12881 11488 11489 1
12882 11488 11539 1
12883 11488 11540 1
12884 11489 11490 1
12885 11489 11541 1
12886 11489 11542 1
12887 11490 11491 1
12888 11490 11543 1
12889 11490 11544 1
12890 11491 11492 am
12891 11492 11493 am
12892 11492 11501 1
12893 11493 11494 am
12894 11493 11498 1
12895 11494 11495 am
12896 11495 11496 am
12897 11495 11515 am
12898 11496 11497 am
12899 11496 11513 1
12900 11497 11529 1
12901 11498 11499 1
12902 11498 11545 1
12903 11498 11574 1
12904 11499 11500 am
12905 11499 11505 am
12906 11500 11501 1
12907 11500 11502 am
12908 11501 11546 1
12909 11501 11575 1
12910 11502 11503 am
12911 11502 11533 1
12912 11503 11504 am
12913 11503 11509 1
12914 11504 11505 am
12915 11504 11506 1
12916 11505 11510 am
12917 11506 11507 1
12918 11506 11512 am
12919 11507 11508 1
12920 11507 11547 1
12921 11507 11548 1
12922 11508 11509 1
12923 11508 11549 1
12924 11508 11550 1
12925 11509 11551 1
12926 11509 11552 1
12927 11510 11511 am
12928 11510 11553 1
12929 11511 11512 am
12930 11511 11532 1
12931 11512 11554 1
12932 11513 11514 1
12933 11513 11555 1
12934 11513 11556 1
12935 11514 11515 am
12936 11514 11519 am
12937 11515 11516 am
12938 11516 11517 am
12939 11516 11557 1
12940 11517 11518 am
12941 11517 11526 am
12942 11518 11519 am
12943 11518 11523 am
12944 11519 11520 am
12945 11520 11521 am
12946 11520 11558 1
12947 11521 11522 am
12948 11521 11530 1
12949 11522 11523 am
12950 11522 11559 1
12951 11523 11524 am
12952 11524 11525 am
12953 11524 11534 1
12954 11525 11526 am
12955 11525 11560 1
12956 11526 11561 1
12957 11527 11562 1
12958 11528 11563 1
12959 11528 11564 1
12960 11528 11565 1
12961 11529 11566 1
12962 11530 11531 1
12963 11530 11567 1
12964 11530 11576 1
12965 11531 11568 1
12966 11531 11569 1
12967 11531 11570 1
12968 11532 11571 1
12969 11533 11572 1
12970 11534 11573 1
12971 11577 11578 am
12972 11582 11577 am
12973 11577 11629 1
12974 11578 11579 am
12975 11578 11637 1
12976 11579 11580 am
12977 11579 11585 1
12978 11580 11581 am
12979 11580 11583 1
12980 11581 11582 am
12981 11581 11638 1
12982 11582 11630 1
12983 11583 11584 am
12984 11583 11589 am
12985 11584 11585 1
12986 11584 11586 am
12987 11585 11639 1
12988 11585 11640 1
12989 11586 11587 am
12990 11586 11599 am
12991 11587 11588 am
12992 11587 11596 am
12993 11588 11589 am
12994 11588 11593 1
12995 11589 11590 1
12996 11590 11591 1
12997 11590 11641 1
12998 11590 11642 1
12999 11591 11592 1
13000 11591 11643 1
13001 11591 11644 1
13002 11592 11593 1
13003 11592 11645 1
13004 11592 11646 1
13005 11593 11594 am
13006 11594 11595 am
13007 11594 11603 1
13008 11595 11596 am
13009 11595 11600 1
13010 11596 11597 am
13011 11597 11598 am
13012 11597 11617 am
13013 11598 11599 am
13014 11598 11615 1
13015 11599 11631 1
13016 11600 11601 1
13017 11600 11647 1
13018 11600 11676 1
13019 11601 11602 am
13020 11601 11607 am
13021 11602 11603 1
13022 11602 11604 am
13023 11603 11648 1
13024 11603 11677 1
13025 11604 11605 am
13026 11604 11635 1
13027 11605 11606 am
13028 11605 11611 1
13029 11606 11607 am
13030 11606 11608 1
13031 11607 11612 am
13032 11608 11609 1
13033 11608 11614 am
13034 11609 11610 1
13035 11609 11649 1
13036 11609 11650 1
13037 11610 11611 1
13038 11610 11651 1
13039 11610 11652 1
13040 11611 11653 1
13041 11611 11654 1
13042 11612 11613 am
13043 11612 11655 1
13044 11613 11614 am
13045 11613 11634 1
13046 11614 11656 1
13047 11615 11616 1
13048 11615 11657 1
13049 11615 11658 1
13050 11616 11617 am
13051 11616 11621 am
13052 11617 11618 am
13053 11618 11619 am
13054 11618 11659 1
13055 11619 11620 am
13056 11619 11628 am
13057 11620 11621 am
13058 11620 11625 am
13059 11621 11622 am
13060 11622 11623 am
13061 11622 11660 1
13062 11623 11624 am
13063 11623 11632 1
13064 11624 11625 am
13065 11624 11661 1
13066 11625 11626 am
13067 11626 11627 am
13068 11626 11636 1
13069 11627 11628 am
13070 11627 11662 1
13071 11628 11663 1
13072 11629 11664 1
13073 11630 11665 1
13074 11630 11666 1
13075 11630 11667 1
13076 11631 11668 1
13077 11632 11633 1
13078 11632 11669 1
13079 11632 11678 1
13080 11633 11670 1
13081 11633 11671 1
13082 11633 11672 1
13083 11634 11673 1
13084 11635 11674 1
13085 11636 11675 1
13086 11679 11680 am
13087 11684 11679 am
13088 11679 11731 1
13089 11680 11681 am
13090 11680 11739 1
13091 11681 11682 am
13092 11681 11687 1
13093 11682 11683 am
13094 11682 11685 1
13095 11683 11684 am
13096 11683 11740 1
13097 11684 11732 1
13098 11685 11686 am
13099 11685 11691 am
13100 11686 11687 1
13101 11686 11688 am
13102 11687 11741 1
13103 11687 11742 1
13104 11688 11689 am
13105 11688 11701 am
13106 11689 11690 am
13107 11689 11698 am
13108 11690 11691 am
13109 11690 11695 1
13110 11691 11692 1
13111 11692 11693 1
13112 11692 11743 1
13113 11692 11744 1
13114 11693 11694 1
13115 11693 11745 1
13116 11693 11746 1
13117 11694 11695 1
13118 11694 11747 1
13119 11694 11748 1
13120 11695 11696 am
13121 11696 11697 am
13122 11696 11705 1
13123 11697 11698 am
13124 11697 11702 1
13125 11698 11699 am
13126 11699 11700 am
13127 11699 11719 am
13128 11700 11701 am
13129 11700 11717 1
13130 11701 11733 1
13131 11702 11703 1
13132 11702 11749 1
13133 11702 11778 1
13134 11703 11704 am
13135 11703 11709 am
13136 11704 11705 1
13137 11704 11706 am
13138 11705 11750 1
13139 11705 11779 1
13140 11706 11707 am
13141 11706 11737 1
13142 11707 11708 am
13143 11707 11713 1
13144 11708 11709 am
13145 11708 11710 1
13146 11709 11714 am
13147 11710 11711 1
13148 11710 11716 am
13149 11711 11712 1
13150 11711 11751 1
13151 11711 11752 1
13152 11712 11713 1
13153 11712 11753 1
13154 11712 11754 1
13155 11713 11755 1
13156 11713 11756 1
13157 11714 11715 am
13158 11714 11757 1
13159 11715 11716 am
13160 11715 11736 1
13161 11716 11758 1
13162 11717 11718 1
13163 11717 11759 1
13164 11717 11760 1
13165 11718 11719 am
13166 11718 11723 am
13167 11719 11720 am
13168 11720 11721 am
13169 11720 11761 1
13170 11721 11722 am
13171 11721 11730 am
13172 11722 11723 am
13173 11722 11727 am
13174 11723 11724 am
13175 11724 11725 am
13176 11724 11762 1
13177 11725 11726 am
13178 11725 11734 1
13179 11726 11727 am
13180 11726 11763 1
13181 11727 11728 am
13182 11728 11729 am
13183 11728 11738 1
13184 11729 11730 am
13185 11729 11764 1
13186 11730 11765 1
13187 11731 11766 1
13188 11732 11767 1
13189 11732 11768 1
13190 11732 11769 1
13191 11733 11770 1
13192 11734 11735 1
13193 11734 11771 1
13194 11734 11780 1
13195 11735 11772 1
13196 11735 11773 1
13197 11735 11774 1
13198 11736 11775 1
13199 11737 11776 1
13200 11738 11777 1
13201 11781 11782 1
13202 11781 11786 1
13203 11781 11928 1
13204 11781 11929 1
13205 11783 11782 1
13206 11782 11930 1
13207 11782 11931 1
13208 11784 11783 1
13209 11783 11790 1
13210 11783 11932 1
13211 11785 11784 1
13212 11784 11787 1
13213 11784 11933 1
13214 11786 11785 1
13215 11785 11934 1
13216 11785 11935 1
13217 11788 11787 1
13218 11787 11794 1
13219 11787 11936 1
13220 11789 11788 1
13221 11788 11791 1
13222 11788 11937 1
13223 11790 11789 1
13224 11789 11938 1
13225 11789 11939 1
13226 11790 11940 1
13227 11790 11941 1
13228 11792 11791 1
13229 11793 11792 1
13230 11792 11798 1
13231 11792 11942 1
13232 11794 11793 1
13233 11793 11795 1
13234 11793 11943 1
13235 11794 11944 1
13236 11794 11945 1
13237 11796 11795 1
13238 11795 11805 2
13239 11797 11796 1
13240 11796 11802 1
13241 11798 11797 1
13242 11797 11799 1
13243 11798 11810 1
13244 11798 11946 1
13245 11800 11799 1
13246 11799 11812 1
13247 11801 11800 1
13248 11800 11809 1
13249 11802 11801 1
13250 11801 11806 1
13251 11802 11803 1
13252 11804 11803 1
13253 11803 11947 1
13254 11803 11948 1
13255 11805 11804 1
13256 11804 11949 1
13257 11804 11950 1
13258 11805 11951 1
13259 11807 11806 1
13260 11808 11807 1
13261 11807 11843 1
13262 11809 11808 1
13263 11808 11827 1
13264 11809 11825 1
13265 11811 11810 1
13266 11810 11816 2
13267 11812 11811 1
13268 11811 11813 1
13269 11811 11952 1
13270 11812 11826 1
13271 11814 11813 2
13272 11813 11820 1
13273 11815 11814 1
13274 11814 11817 1
13275 11816 11815 1
13276 11815 11953 1
13277 11815 11954 1
13278 11816 11955 1
13279 11818 11817 1
13280 11817 11956 1
13281 11817 11957 1
13282 11819 11818 1
13283 11818 11958 1
13284 11818 11959 1
13285 11820 11819 2
13286 11819 11824 1
13287 11820 11821 1
13288 11822 11821 1
13289 11821 11960 1
13290 11821 11961 1
13291 11823 11822 1
13292 11822 11897 1
13293 11822 11962 1
13294 11824 11823 1
13295 11823 11963 1
13296 11823 11964 1
13297 11824 11965 1
13298 11824 11966 1
13299 11826 11825 1
13300 11825 11829 1
13301 11826 11967 1
13302 11828 11827 1
13303 11827 11833 1
13304 11829 11828 1
13305 11828 11830 1
13306 11831 11830 1
13307 11830 11968 1
13308 11832 11831 1
13309 11831 11837 1
13310 11833 11832 1
13311 11832 11834 1
13312 11833 11842 1
13313 11835 11834 1
13314 11834 11844 1
13315 11836 11835 1
13316 11835 11841 1
13317 11837 11836 1
13318 11836 11838 1
13319 11837 11969 1
13320 11839 11838 1
13321 11838 11854 1
13322 11840 11839 1
13323 11839 11851 1
13324 11841 11840 1
13325 11840 11848 1
13326 11841 11846 1
13327 11843 11842 1
13328 11842 11845 1
13329 11843 11970 1
13330 11845 11844 1
13331 11844 11847 1
13332 11845 11863 1
13333 11847 11846 1
13334 11846 11850 1
13335 11847 11865 1
13336 11849 11848 1
13337 11848 11881 1
13338 11850 11849 1
13339 11849 11876 1
13340 11850 11874 1
13341 11852 11851 1
13342 11853 11852 1
13343 11852 11858 1
13344 11852 11971 1
13345 11854 11853 1
13346 11853 11855 1
13347 11853 11972 1
13348 11854 11900 1
13349 11854 11973 1
13350 11856 11855 1
13351 11855 11974 1
13352 11855 11975 1
13353 11857 11856 1
13354 11856 11976 1
13355 11856 11977 1
13356 11858 11857 1
13357 11857 11862 1
13358 11857 11978 1
13359 11858 11859 1
13360 11858 11979 1
13361 11860 11859 1
13362 11859 11980 1
13363 11859 11981 1
13364 11861 11860 1
13365 11860 11982 1
13366 11860 11983 1
13367 11862 11861 1
13368 11861 11984 1
13369 11861 11985 1
13370 11862 11986 1
13371 11864 11863 1
13372 11863 11869 1
13373 11865 11864 1
13374 11864 11866 1
13375 11865 11875 1
13376 11867 11866 1
13377 11868 11867 1
13378 11867 11873 1
13379 11867 11987 1
13380 11869 11868 1
13381 11868 11870 1
13382 11868 11988 1
13383 11871 11870 1
13384 11870 11989 1
13385 11870 11990 1
13386 11872 11871 1
13387 11871 11991 1
13388 11871 11992 1
13389 11873 11872 1
13390 11872 11993 1
13391 11872 11994 1
13392 11873 11995 1
13393 11873 11996 1
13394 11875 11874 1
13395 11874 11878 1
13396 11875 11997 1
13397 11877 11876 1
13398 11876 11879 1
13399 11878 11877 1
13400 11877 11882 1
13401 11878 11998 1
13402 11880 11879 1
13403 11879 11884 1
13404 11881 11880 1
13405 11880 11885 1
13406 11881 11999 1
13407 11883 11882 1
13408 11884 11883 1
13409 11883 11894 1
13410 11884 11887 1
13411 11886 11885 1
13412 11885 11891 1
13413 11885 12000 1
13414 11887 11886 1
13415 11886 11888 1
13416 11886 12001 1
13417 11887 11892 1
13418 11889 11888 1
13419 11888 11895 1
13420 11888 12002 1
13421 11890 11889 1
13422 11889 12003 1
13423 11889 12004 1
13424 11891 11890 1
13425 11890 12005 1
13426 11890 12006 1
13427 11891 12007 1
13428 11891 12008 1
13429 11893 11892 1
13430 11892 11896 1
13431 11894 11893 1
13432 11893 11904 1
13433 11894 11901 1
13434 11895 11896 1
13435 11895 11919 1
13436 11896 11915 1
13437 11897 11898 1
13438 11897 11899 1
13439 11897 12009 1
13440 11898 12010 1
13441 11898 12011 1
13442 11898 12012 1
13443 11899 12013 1
13444 11899 12014 1
13445 11899 12015 1
13446 11900 12016 1
13447 11902 11901 1
13448 11901 12017 1
13449 11903 11902 1
13450 11902 12018 1
13451 11904 11903 1
13452 11903 11908 1
13453 11904 11905 1
13454 11906 11905 1
13455 11905 11915 1
13456 11907 11906 1
13457 11906 11912 1
13458 11908 11907 1
13459 11907 11909 1
13460 11908 12019 1
13461 11910 11909 1
13462 11909 12020 1
13463 11911 11910 1
13464 11910 12021 1
13465 11912 11911 1
13466 11911 11918 1
13467 11912 11913 1
13468 11914 11913 1
13469 11913 11916 1
13470 11915 11914 1
13471 11914 11920 1
13472 11917 11916 1
13473 11916 11921 1
13474 11918 11917 1
13475 11917 12022 1
13476 11918 12023 1
13477 11920 11919 1
13478 11919 12024 1
13479 11920 11922 1
13480 11922 11921 1
13481 11921 11926 1
13482 11922 11923 1
13483 11924 11923 1
13484 11923 12025 1
13485 11923 12026 1
13486 11925 11924 1
13487 11924 12027 1
13488 11924 12028 1
13489 11926 11925 1
13490 11925 12029 1
13491 11925 12030 1
13492 11926 11927 2
13493 12031 12032 1
13494 12031 12036 1
13495 12031 12178 1
13496 12031 12179 1
13497 12033 12032 1
13498 12032 12180 1
13499 12032 12181 1
13500 12034 12033 1
13501 12033 12040 1
13502 12033 12182 1
13503 12035 12034 1
13504 12034 12037 1
13505 12034 12183 1
13506 12036 12035 1
13507 12035 12184 1
13508 12035 12185 1
13509 12038 12037 1
13510 12037 12044 1
13511 12037 12186 1
13512 12039 12038 1
13513 12038 12041 1
13514 12038 12187 1
13515 12040 12039 1
13516 12039 12188 1
13517 12039 12189 1
13518 12040 12190 1
13519 12040 12191 1
13520 12042 12041 1
13521 12043 12042 1
13522 12042 12048 1
13523 12042 12192 1
13524 12044 12043 1
13525 12043 12045 1
13526 12043 12193 1
13527 12044 12194 1
13528 12044 12195 1
13529 12046 12045 1
13530 12045 12055 2
13531 12047 12046 1
13532 12046 12052 1
13533 12048 12047 1
13534 12047 12049 1
13535 12048 12060 1
13536 12048 12196 1
13537 12050 12049 1
13538 12049 12062 1
13539 12051 12050 1
13540 12050 12059 1
13541 12052 12051 1
13542 12051 12056 1
13543 12052 12053 1
13544 12054 12053 1
13545 12053 12197 1
13546 12053 12198 1
13547 12055 12054 1
13548 12054 12199 1
13549 12054 12200 1
13550 12055 12201 1
13551 12057 12056 1
13552 12058 12057 1
13553 12057 12093 1
13554 12059 12058 1
13555 12058 12077 1
13556 12059 12075 1
13557 12061 12060 1
13558 12060 12066 2
13559 12062 12061 1
13560 12061 12063 1
13561 12061 12202 1
13562 12062 12076 1
13563 12064 12063 2
13564 12063 12070 1
13565 12065 12064 1
13566 12064 12067 1
13567 12066 12065 1
13568 12065 12203 1
13569 12065 12204 1
13570 12066 12205 1
13571 12068 12067 1
13572 12067 12206 1
13573 12067 12207 1
13574 12069 12068 1
13575 12068 12208 1
13576 12068 12209 1
13577 12070 12069 2
13578 12069 12074 1
13579 12070 12071 1
13580 12072 12071 1
13581 12071 12210 1
13582 12071 12211 1
13583 12073 12072 1
13584 12072 12147 1
13585 12072 12212 1
13586 12074 12073 1
13587 12073 12213 1
13588 12073 12214 1
13589 12074 12215 1
13590 12074 12216 1
13591 12076 12075 1
13592 12075 12079 1
13593 12076 12217 1
13594 12078 12077 1
13595 12077 12083 1
13596 12079 12078 1
13597 12078 12080 1
13598 12081 12080 1
13599 12080 12218 1
13600 12082 12081 1
13601 12081 12087 1
13602 12083 12082 1
13603 12082 12084 1
13604 12083 12092 1
13605 12085 12084 1
13606 12084 12094 1
13607 12086 12085 1
13608 12085 12091 1
13609 12087 12086 1
13610 12086 12088 1
13611 12087 12219 1
13612 12089 12088 1
13613 12088 12104 1
13614 12090 12089 1
13615 12089 12101 1
13616 12091 12090 1
13617 12090 12098 1
13618 12091 12096 1
13619 12093 12092 1
13620 12092 12095 1
13621 12093 12220 1
13622 12095 12094 1
13623 12094 12097 1
13624 12095 12113 1
13625 12097 12096 1
13626 12096 12100 1
13627 12097 12115 1
13628 12099 12098 1
13629 12098 12131 1
13630 12100 12099 1
13631 12099 12126 1
13632 12100 12124 1
13633 12102 12101 1
13634 12103 12102 1
13635 12102 12108 1
13636 12102 12221 1
13637 12104 12103 1
13638 12103 12105 1
13639 12103 12222 1
13640 12104 12150 1
13641 12104 12223 1
13642 12106 12105 1
13643 12105 12224 1
13644 12105 12225 1
13645 12107 12106 1
13646 12106 12226 1
13647 12106 12227 1
13648 12108 12107 1
13649 12107 12112 1
13650 12107 12228 1
13651 12108 12109 1
13652 12108 12229 1
13653 12110 12109 1
13654 12109 12230 1
13655 12109 12231 1
13656 12111 12110 1
13657 12110 12232 1
13658 12110 12233 1
13659 12112 12111 1
13660 12111 12234 1
13661 12111 12235 1
13662 12112 12236 1
13663 12114 12113 1
13664 12113 12119 1
13665 12115 12114 1
13666 12114 12116 1
13667 12115 12125 1
13668 12117 12116 1
13669 12118 12117 1
13670 12117 12123 1
13671 12117 12237 1
13672 12119 12118 1
13673 12118 12120 1
13674 12118 12238 1
13675 12121 12120 1
13676 12120 12239 1
13677 12120 12240 1
13678 12122 12121 1
13679 12121 12241 1
13680 12121 12242 1
13681 12123 12122 1
13682 12122 12243 1
13683 12122 12244 1
13684 12123 12245 1
13685 12123 12246 1
13686 12125 12124 1
13687 12124 12128 1
13688 12125 12247 1
13689 12127 12126 1
13690 12126 12129 1
13691 12128 12127 1
13692 12127 12132 1
13693 12128 12248 1
13694 12130 12129 1
13695 12129 12134 1
13696 12131 12130 1
13697 12130 12135 1
13698 12131 12249 1
13699 12133 12132 1
13700 12134 12133 1
13701 12133 12144 1
13702 12134 12137 1
13703 12136 12135 1
13704 12135 12141 1
13705 12135 12250 1
13706 12137 12136 1
13707 12136 12138 1
13708 12136 12251 1
13709 12137 12142 1
13710 12139 12138 1
13711 12138 12145 1
13712 12138 12252 1
13713 12140 12139 1
13714 12139 12253 1
13715 12139 12254 1
13716 12141 12140 1
13717 12140 12255 1
13718 12140 12256 1
13719 12141 12257 1
13720 12141 12258 1
13721 12143 12142 1
13722 12142 12146 1
13723 12144 12143 1
13724 12143 12154 1
13725 12144 12151 1
13726 12145 12146 1
13727 12145 12169 1
13728 12146 12165 1
13729 12147 12148 1
13730 12147 12149 1
13731 12147 12259 1
13732 12148 12260 1
13733 12148 12261 1
13734 12148 12262 1
13735 12149 12263 1
13736 12149 12264 1
13737 12149 12265 1
13738 12150 12266 1
13739 12152 12151 1
13740 12151 12267 1
13741 12153 12152 1
13742 12152 12268 1
13743 12154 12153 1
13744 12153 12158 1
13745 12154 12155 1
13746 12156 12155 1
13747 12155 12165 1
13748 12157 12156 1
13749 12156 12162 1
13750 12158 12157 1
13751 12157 12159 1
13752 12158 12269 1
13753 12160 12159 1
13754 12159 12270 1
13755 12161 12160 1
13756 12160 12271 1
13757 12162 12161 1
13758 12161 12168 1
13759 12162 12163 1
13760 12164 12163 1
13761 12163 12166 1
13762 12165 12164 1
13763 12164 12170 1
13764 12167 12166 1
13765 12166 12171 1
13766 12168 12167 1
13767 12167 12272 1
13768 12168 12273 1
13769 12170 12169 1
13770 12169 12274 1
13771 12170 12172 1
13772 12172 12171 1
13773 12171 12176 1
13774 12172 12173 1
13775 12174 12173 1
13776 12173 12275 1
13777 12173 12276 1
13778 12175 12174 1
13779 12174 12277 1
13780 12174 12278 1
13781 12176 12175 1
13782 12175 12279 1
13783 12175 12280 1
13784 12176 12177 2
13785 12281 12282 1
13786 12281 12286 1
13787 12281 12428 1
13788 12281 12429 1
13789 12283 12282 1
13790 12282 12430 1
13791 12282 12431 1
13792 12284 12283 1
13793 12283 12290 1
13794 12283 12432 1
13795 12285 12284 1
13796 12284 12287 1
13797 12284 12433 1
13798 12286 12285 1
13799 12285 12434 1
13800 12285 12435 1
13801 12288 12287 1
13802 12287 12294 1
13803 12287 12436 1
13804 12289 12288 1
13805 12288 12291 1
13806 12288 12437 1
13807 12290 12289 1
13808 12289 12438 1
13809 12289 12439 1
13810 12290 12440 1
13811 12290 12441 1
13812 12292 12291 1
13813 12293 12292 1
13814 12292 12298 1
13815 12292 12442 1
13816 12294 12293 1
13817 12293 12295 1
13818 12293 12443 1
13819 12294 12444 1
13820 12294 12445 1
13821 12296 12295 1
13822 12295 12305 2
13823 12297 12296 1
13824 12296 12302 1
13825 12298 12297 1
13826 12297 12299 1
13827 12298 12310 1
13828 12298 12446 1
13829 12300 12299 1
13830 12299 12312 1
13831 12301 12300 1
13832 12300 12309 1
13833 12302 12301 1
13834 12301 12306 1
13835 12302 12303 1
13836 12304 12303 1
13837 12303 12447 1
13838 12303 12448 1
13839 12305 12304 1
13840 12304 12449 1
13841 12304 12450 1
13842 12305 12451 1
13843 12307 12306 1
13844 12308 12307 1
13845 12307 12343 1
13846 12309 12308 1
13847 12308 12327 1
13848 12309 12325 1
13849 12311 12310 1
13850 12310 12316 2
13851 12312 12311 1
13852 12311 12313 1
13853 12311 12452 1
13854 12312 12326 1
13855 12314 12313 2
13856 12313 12320 1
13857 12315 12314 1
13858 12314 12317 1
13859 12316 12315 1
13860 12315 12453 1
13861 12315 12454 1
13862 12316 12455 1
13863 12318 12317 1
13864 12317 12456 1
13865 12317 12457 1
13866 12319 12318 1
13867 12318 12458 1
13868 12318 12459 1
13869 12320 12319 2
13870 12319 12324 1
13871 12320 12321 1
13872 12322 12321 1
13873 12321 12460 1
13874 12321 12461 1
13875 12323 12322 1
13876 12322 12397 1
13877 12322 12462 1
13878 12324 12323 1
13879 12323 12463 1
13880 12323 12464 1
13881 12324 12465 1
13882 12324 12466 1
13883 12326 12325 1
13884 12325 12329 1
13885 12326 12467 1
13886 12328 12327 1
13887 12327 12333 1
13888 12329 12328 1
13889 12328 12330 1
13890 12331 12330 1
13891 12330 12468 1
13892 12332 12331 1
13893 12331 12337 1
13894 12333 12332 1
13895 12332 12334 1
13896 12333 12342 1
13897 12335 12334 1
13898 12334 12344 1
13899 12336 12335 1
13900 12335 12341 1
13901 12337 12336 1
13902 12336 12338 1
13903 12337 12469 1
13904 12339 12338 1
13905 12338 12354 1
13906 12340 12339 1
13907 12339 12351 1
13908 12341 12340 1
13909 12340 12348 1
13910 12341 12346 1
13911 12343 12342 1
13912 12342 12345 1
13913 12343 12470 1
13914 12345 12344 1
13915 12344 12347 1
13916 12345 12363 1
13917 12347 12346 1
13918 12346 12350 1
13919 12347 12365 1
13920 12349 12348 1
13921 12348 12381 1
13922 12350 12349 1
13923 12349 12376 1
13924 12350 12374 1
13925 12352 12351 1
13926 12353 12352 1
13927 12352 12358 1
13928 12352 12471 1
13929 12354 12353 1
13930 12353 12355 1
13931 12353 12472 1
13932 12354 12400 1
13933 12354 12473 1
13934 12356 12355 1
13935 12355 12474 1
13936 12355 12475 1
13937 12357 12356 1
13938 12356 12476 1
13939 12356 12477 1
13940 12358 12357 1
13941 12357 12362 1
13942 12357 12478 1
13943 12358 12359 1
13944 12358 12479 1
13945 12360 12359 1
13946 12359 12480 1
13947 12359 12481 1
13948 12361 12360 1
13949 12360 12482 1
13950 12360 12483 1
13951 12362 12361 1
13952 12361 12484 1
13953 12361 12485 1
13954 12362 12486 1
13955 12364 12363 1
13956 12363 12369 1
13957 12365 12364 1
13958 12364 12366 1
13959 12365 12375 1
13960 12367 12366 1
13961 12368 12367 1
13962 12367 12373 1
13963 12367 12487 1
13964 12369 12368 1
13965 12368 12370 1
13966 12368 12488 1
13967 12371 12370 1
13968 12370 12489 1
13969 12370 12490 1
13970 12372 12371 1
13971 12371 12491 1
13972 12371 12492 1
13973 12373 12372 1
13974 12372 12493 1
13975 12372 12494 1
13976 12373 12495 1
13977 12373 12496 1
13978 12375 12374 1
13979 12374 12378 1
13980 12375 12497 1
13981 12377 12376 1
13982 12376 12379 1
13983 12378 12377 1
13984 12377 12382 1
13985 12378 12498 1
13986 12380 12379 1
13987 12379 12384 1
13988 12381 12380 1
13989 12380 12385 1
13990 12381 12499 1
13991 12383 12382 1
13992 12384 12383 1
13993 12383 12394 1
13994 12384 12387 1
13995 12386 12385 1
13996 12385 12391 1
13997 12385 12500 1
13998 12387 12386 1
13999 12386 12388 1
14000 12386 12501 1
14001 12387 12392 1
14002 12389 12388 1
14003 12388 12395 1
14004 12388 12502 1
14005 12390 12389 1
14006 12389 12503 1
14007 12389 12504 1
14008 12391 12390 1
14009 12390 12505 1
14010 12390 12506 1
14011 12391 12507 1
14012 12391 12508 1
14013 12393 12392 1
14014 12392 12396 1
14015 12394 12393 1
14016 12393 12404 1
14017 12394 12401 1
14018 12395 12396 1
14019 12395 12419 1
14020 12396 12415 1
14021 12397 12398 1
14022 12397 12399 1
14023 12397 12509 1
14024 12398 12510 1
14025 12398 12511 1
14026 12398 12512 1
14027 12399 12513 1
14028 12399 12514 1
14029 12399 12515 1
14030 12400 12516 1
14031 12402 12401 1
14032 12401 12517 1
14033 12403 12402 1
14034 12402 12518 1
14035 12404 12403 1
14036 12403 12408 1
14037 12404 12405 1
14038 12406 12405 1
14039 12405 12415 1
14040 12407 12406 1
14041 12406 12412 1
14042 12408 12407 1
14043 12407 12409 1
14044 12408 12519 1
14045 12410 12409 1
14046 12409 12520 1
14047 12411 12410 1
14048 12410 12521 1
14049 12412 12411 1
14050 12411 12418 1
14051 12412 12413 1
14052 12414 12413 1
14053 12413 12416 1
14054 12415 12414 1
14055 12414 12420 1
14056 12417 12416 1
14057 12416 12421 1
14058 12418 12417 1
14059 12417 12522 1
14060 12418 12523 1
14061 12420 12419 1
14062 12419 12524 1
14063 12420 12422 1
14064 12422 12421 1
14065 12421 12426 1
14066 12422 12423 1
14067 12424 12423 1
14068 12423 12525 1
14069 12423 12526 1
14070 12425 12424 1
14071 12424 12527 1
14072 12424 12528 1
14073 12426 12425 1
14074 12425 12529 1
14075 12425 12530 1
14076 12426 12427 2
14077 12531 12532 1
14078 12531 12536 1
14079 12531 12678 1
14080 12531 12679 1
14081 12533 12532 1
14082 12532 12680 1
14083 12532 12681 1
14084 12534 12533 1
14085 12533 12540 1
14086 12533 12682 1
14087 12535 12534 1
14088 12534 12537 1
14089 12534 12683 1
14090 12536 12535 1
14091 12535 12684 1
14092 12535 12685 1
14093 12538 12537 1
14094 12537 12544 1
14095 12537 12686 1
14096 12539 12538 1
14097 12538 12541 1
14098 12538 12687 1
14099 12540 12539 1
14100 12539 12688 1
14101 12539 12689 1
14102 12540 12690 1
14103 12540 12691 1
14104 12542 12541 1
14105 12543 12542 1
14106 12542 12548 1
14107 12542 12692 1
14108 12544 12543 1
14109 12543 12545 1
14110 12543 12693 1
14111 12544 12694 1
14112 12544 12695 1
14113 12546 12545 1
14114 12545 12555 2
14115 12547 12546 1
14116 12546 12552 1
14117 12548 12547 1
14118 12547 12549 1
14119 12548 12560 1
14120 12548 12696 1
14121 12550 12549 1
14122 12549 12562 1
14123 12551 12550 1
14124 12550 12559 1
14125 12552 12551 1
14126 12551 12556 1
14127 12552 12553 1
14128 12554 12553 1
14129 12553 12697 1
14130 12553 12698 1
14131 12555 12554 1
14132 12554 12699 1
14133 12554 12700 1
14134 12555 12701 1
14135 12557 12556 1
14136 12558 12557 1
14137 12557 12593 1
14138 12559 12558 1
14139 12558 12577 1
14140 12559 12575 1
14141 12561 12560 1
14142 12560 12566 2
14143 12562 12561 1
14144 12561 12563 1
14145 12561 12702 1
14146 12562 12576 1
14147 12564 12563 2
14148 12563 12570 1
14149 12565 12564 1
14150 12564 12567 1
14151 12566 12565 1
14152 12565 12703 1
14153 12565 12704 1
14154 12566 12705 1
14155 12568 12567 1
14156 12567 12706 1
14157 12567 12707 1
14158 12569 12568 1
14159 12568 12708 1
14160 12568 12709 1
14161 12570 12569 2
14162 12569 12574 1
14163 12570 12571 1
14164 12572 12571 1
14165 12571 12710 1
14166 12571 12711 1
14167 12573 12572 1
14168 12572 12647 1
14169 12572 12712 1
14170 12574 12573 1
14171 12573 12713 1
14172 12573 12714 1
14173 12574 12715 1
14174 12574 12716 1
14175 12576 12575 1
14176 12575 12579 1
14177 12576 12717 1
14178 12578 12577 1
14179 12577 12583 1
14180 12579 12578 1
14181 12578 12580 1
14182 12581 12580 1
14183 12580 12718 1
14184 12582 12581 1
14185 12581 12587 1
14186 12583 12582 1
14187 12582 12584 1
14188 12583 12592 1
14189 12585 12584 1
14190 12584 12594 1
14191 12586 12585 1
14192 12585 12591 1
14193 12587 12586 1
14194 12586 12588 1
14195 12587 12719 1
14196 12589 12588 1
14197 12588 12604 1
14198 12590 12589 1
14199 12589 12601 1
14200 12591 12590 1
14201 12590 12598 1
14202 12591 12596 1
14203 12593 12592 1
14204 12592 12595 1
14205 12593 12720 1
14206 12595 12594 1
14207 12594 12597 1
14208 12595 12613 1
14209 12597 12596 1
14210 12596 12600 1
14211 12597 12615 1
14212 12599 12598 1
14213 12598 12631 1
14214 12600 12599 1
14215 12599 12626 1
14216 12600 12624 1
14217 12602 12601 1
14218 12603 12602 1
14219 12602 12608 1
14220 12602 12721 1
14221 12604 12603 1
14222 12603 12605 1
14223 12603 12722 1
14224 12604 12650 1
14225 12604 12723 1
14226 12606 12605 1
14227 12605 12724 1
14228 12605 12725 1
14229 12607 12606 1
14230 12606 12726 1
14231 12606 12727 1
14232 12608 12607 1
14233 12607 12612 1
14234 12607 12728 1
14235 12608 12609 1
14236 12608 12729 1
14237 12610 12609 1
14238 12609 12730 1
14239 12609 12731 1
14240 12611 12610 1
14241 12610 12732 1
14242 12610 12733 1
14243 12612 12611 1
14244 12611 12734 1
14245 12611 12735 1
14246 12612 12736 1
14247 12614 12613 1
14248 12613 12619 1
14249 12615 12614 1
14250 12614 12616 1
14251 12615 12625 1
14252 12617 12616 1
14253 12618 12617 1
14254 12617 12623 1
14255 12617 12737 1
14256 12619 12618 1
14257 12618 12620 1
14258 12618 12738 1
14259 12621 12620 1
14260 12620 12739 1
14261 12620 12740 1
14262 12622 12621 1
14263 12621 12741 1
14264 12621 12742 1
14265 12623 12622 1
14266 12622 12743 1
14267 12622 12744 1
14268 12623 12745 1
14269 12623 12746 1
14270 12625 12624 1
14271 12624 12628 1
14272 12625 12747 1
14273 12627 12626 1
14274 12626 12629 1
14275 12628 12627 1
14276 12627 12632 1
14277 12628 12748 1
14278 12630 12629 1
14279 12629 12634 1
14280 12631 12630 1
14281 12630 12635 1
14282 12631 12749 1
14283 12633 12632 1
14284 12634 12633 1
14285 12633 12644 1
14286 12634 12637 1
14287 12636 12635 1
14288 12635 12641 1
14289 12635 12750 1
14290 12637 12636 1
14291 12636 12638 1
14292 12636 12751 1
14293 12637 12642 1
14294 12639 12638 1
14295 12638 12645 1
14296 12638 12752 1
14297 12640 12639 1
14298 12639 12753 1
14299 12639 12754 1
14300 12641 12640 1
14301 12640 12755 1
14302 12640 12756 1
14303 12641 12757 1
14304 12641 12758 1
14305 12643 12642 1
14306 12642 12646 1
14307 12644 12643 1
14308 12643 12654 1
14309 12644 12651 1
14310 12645 12646 1
14311 12645 12669 1
14312 12646 12665 1
14313 12647 12648 1
14314 12647 12649 1
14315 12647 12759 1
14316 12648 12760 1
14317 12648 12761 1
14318 12648 12762 1
14319 12649 12763 1
14320 12649 12764 1
14321 12649 12765 1
14322 12650 12766 1
14323 12652 12651 1
14324 12651 12767 1
14325 12653 12652 1
14326 12652 12768 1
14327 12654 12653 1
14328 12653 12658 1
14329 12654 12655 1
14330 12656 12655 1
14331 12655 12665 1
14332 12657 12656 1
14333 12656 12662 1
14334 12658 12657 1
14335 12657 12659 1
14336 12658 12769 1
14337 12660 12659 1
14338 12659 12770 1
14339 12661 12660 1
14340 12660 12771 1
14341 12662 12661 1
14342 12661 12668 1
14343 12662 12663 1
14344 12664 12663 1
14345 12663 12666 1
14346 12665 12664 1
14347 12664 12670 1
14348 12667 12666 1
14349 12666 12671 1
14350 12668 12667 1
14351 12667 12772 1
14352 12668 12773 1
14353 12670 12669 1
14354 12669 12774 1
14355 12670 12672 1
14356 12672 12671 1
14357 12671 12676 1
14358 12672 12673 1
14359 12674 12673 1
14360 12673 12775 1
14361 12673 12776 1
14362 12675 12674 1
14363 12674 12777 1
14364 12674 12778 1
14365 12676 12675 1
14366 12675 12779 1
14367 12675 12780 1
14368 12676 12677 2
14369 12781 12782 1
14370 12781 12786 1
14371 12781 12928 1
14372 12781 12929 1
14373 12783 12782 1
14374 12782 12930 1
14375 12782 12931 1
14376 12784 12783 1
14377 12783 12790 1
14378 12783 12932 1
14379 12785 12784 1
14380 12784 12787 1
14381 12784 12933 1
14382 12786 12785 1
14383 12785 12934 1
14384 12785 12935 1
14385 12788 12787 1
14386 12787 12794 1
14387 12787 12936 1
14388 12789 12788 1
14389 12788 12791 1
14390 12788 12937 1
14391 12790 12789 1
14392 12789 12938 1
14393 12789 12939 1
14394 12790 12940 1
14395 12790 12941 1
14396 12792 12791 1
14397 12793 12792 1
14398 12792 12798 1
14399 12792 12942 1
14400 12794 12793 1
14401 12793 12795 1
14402 12793 12943 1
14403 12794 12944 1
14404 12794 12945 1
14405 12796 12795 1
14406 12795 12805 2
14407 12797 12796 1
14408 12796 12802 1
14409 12798 12797 1
14410 12797 12799 1
14411 12798 12810 1
14412 12798 12946 1
14413 12800 12799 1
14414 12799 12812 1
14415 12801 12800 1
14416 12800 12809 1
14417 12802 12801 1
14418 12801 12806 1
14419 12802 12803 1
14420 12804 12803 1
14421 12803 12947 1
14422 12803 12948 1
14423 12805 12804 1
14424 12804 12949 1
14425 12804 12950 1
14426 12805 12951 1
14427 12807 12806 1
14428 12808 12807 1
14429 12807 12843 1
14430 12809 12808 1
14431 12808 12827 1
14432 12809 12825 1
14433 12811 12810 1
14434 12810 12816 2
14435 12812 12811 1
14436 12811 12813 1
14437 12811 12952 1
14438 12812 12826 1
14439 12814 12813 2
14440 12813 12820 1
14441 12815 12814 1
14442 12814 12817 1
14443 12816 12815 1
14444 12815 12953 1
14445 12815 12954 1
14446 12816 12955 1
14447 12818 12817 1
14448 12817 12956 1
14449 12817 12957 1
14450 12819 12818 1
14451 12818 12958 1
14452 12818 12959 1
14453 12820 12819 2
14454 12819 12824 1
14455 12820 12821 1
14456 12822 12821 1
14457 12821 12960 1
14458 12821 12961 1
14459 12823 12822 1
14460 12822 12897 1
14461 12822 12962 1
14462 12824 12823 1
14463 12823 12963 1
14464 12823 12964 1
14465 12824 12965 1
14466 12824 12966 1
14467 12826 12825 1
14468 12825 12829 1
14469 12826 12967 1
14470 12828 12827 1
14471 12827 12833 1
14472 12829 12828 1
14473 12828 12830 1
14474 12831 12830 1
14475 12830 12968 1
14476 12832 12831 1
14477 12831 12837 1
14478 12833 12832 1
14479 12832 12834 1
14480 12833 12842 1
14481 12835 12834 1
14482 12834 12844 1
14483 12836 12835 1
14484 12835 12841 1
14485 12837 12836 1
14486 12836 12838 1
14487 12837 12969 1
14488 12839 12838 1
14489 12838 12854 1
14490 12840 12839 1
14491 12839 12851 1
14492 12841 12840 1
14493 12840 12848 1
14494 12841 12846 1
14495 12843 12842 1
14496 12842 12845 1
14497 12843 12970 1
14498 12845 12844 1
14499 12844 12847 1
14500 12845 12863 1
14501 12847 12846 1
14502 12846 12850 1
14503 12847 12865 1
14504 12849 12848 1
14505 12848 12881 1
14506 12850 12849 1
14507 12849 12876 1
14508 12850 12874 1
14509 12852 12851 1
14510 12853 12852 1
14511 12852 12858 1
14512 12852 12971 1
14513 12854 12853 1
14514 12853 12855 1
14515 12853 12972 1
14516 12854 12900 1
14517 12854 12973 1
14518 12856 12855 1
14519 12855 12974 1
14520 12855 12975 1
14521 12857 12856 1
14522 12856 12976 1
14523 12856 12977 1
14524 12858 12857 1
14525 12857 12862 1
14526 12857 12978 1
14527 12858 12859 1
14528 12858 12979 1
14529 12860 12859 1
14530 12859 12980 1
14531 12859 12981 1
14532 12861 12860 1
14533 12860 12982 1
14534 12860 12983 1
14535 12862 12861 1
14536 12861 12984 1
14537 12861 12985 1
14538 12862 12986 1
14539 12864 12863 1
14540 12863 12869 1
14541 12865 12864 1
14542 12864 12866 1
14543 12865 12875 1
14544 12867 12866 1
14545 12868 12867 1
14546 12867 12873 1
14547 12867 12987 1
14548 12869 12868 1
14549 12868 12870 1
14550 12868 12988 1
14551 12871 12870 1
14552 12870 12989 1
14553 12870 12990 1
14554 12872 12871 1
14555 12871 12991 1
14556 12871 12992 1
14557 12873 12872 1
14558 12872 12993 1
14559 12872 12994 1
14560 12873 12995 1
14561 12873 12996 1
14562 12875 12874 1
14563 12874 12878 1
14564 12875 12997 1
14565 12877 12876 1
14566 12876 12879 1
14567 12878 12877 1
14568 12877 12882 1
14569 12878 12998 1
14570 12880 12879 1
14571 12879 12884 1
14572 12881 12880 1
14573 12880 12885 1
14574 12881 12999 1
14575 12883 12882 1
14576 12884 12883 1
14577 12883 12894 1
14578 12884 12887 1
14579 12886 12885 1
14580 12885 12891 1
14581 12885 13000 1
14582 12887 12886 1
14583 12886 12888 1
14584 12886 13001 1
14585 12887 12892 1
14586 12889 12888 1
14587 12888 12895 1
14588 12888 13002 1
14589 12890 12889 1
14590 12889 13003 1
14591 12889 13004 1
14592 12891 12890 1
14593 12890 13005 1
14594 12890 13006 1
14595 12891 13007 1
14596 12891 13008 1
14597 12893 12892 1
14598 12892 12896 1
14599 12894 12893 1
14600 12893 12904 1
14601 12894 12901 1
14602 12895 12896 1
14603 12895 12919 1
14604 12896 12915 1
14605 12897 12898 1
14606 12897 12899 1
14607 12897 13009 1
14608 12898 13010 1
14609 12898 13011 1
14610 12898 13012 1
14611 12899 13013 1
14612 12899 13014 1
14613 12899 13015 1
14614 12900 13016 1
14615 12902 12901 1
14616 12901 13017 1
14617 12903 12902 1
14618 12902 13018 1
14619 12904 12903 1
14620 12903 12908 1
14621 12904 12905 1
14622 12906 12905 1
14623 12905 12915 1
14624 12907 12906 1
14625 12906 12912 1
14626 12908 12907 1
14627 12907 12909 1
14628 12908 13019 1
14629 12910 12909 1
14630 12909 13020 1
14631 12911 12910 1
14632 12910 13021 1
14633 12912 12911 1
14634 12911 12918 1
14635 12912 12913 1
14636 12914 12913 1
14637 12913 12916 1
14638 12915 12914 1
14639 12914 12920 1
14640 12917 12916 1
14641 12916 12921 1
14642 12918 12917 1
14643 12917 13022 1
14644 12918 13023 1
14645 12920 12919 1
14646 12919 13024 1
14647 12920 12922 1
14648 12922 12921 1
14649 12921 12926 1
14650 12922 12923 1
14651 12924 12923 1
14652 12923 13025 1
14653 12923 13026 1
14654 12925 12924 1
14655 12924 13027 1
14656 12924 13028 1
14657 12926 12925 1
14658 12925 13029 1
14659 12925 13030 1
14660 12926 12927 2
14661 13031 13032 1
14662 13031 13036 1
14663 13031 13178 1
14664 13031 13179 1
14665 13033 13032 1
14666 13032 13180 1
14667 13032 13181 1
14668 13034 13033 1
14669 13033 13040 1
14670 13033 13182 1
14671 13035 13034 1
14672 13034 13037 1
14673 13034 13183 1
14674 13036 13035 1
14675 13035 13184 1
14676 13035 13185 1
14677 13038 13037 1
14678 13037 13044 1
14679 13037 13186 1
14680 13039 13038 1
14681 13038 13041 1
14682 13038 13187 1
14683 13040 13039 1
14684 13039 13188 1
14685 13039 13189 1
14686 13040 13190 1
14687 13040 13191 1
14688 13042 13041 1
14689 13043 13042 1
14690 13042 13048 1
14691 13042 13192 1
14692 13044 13043 1
14693 13043 13045 1
14694 13043 13193 1
14695 13044 13194 1
14696 13044 13195 1
14697 13046 13045 1
14698 13045 13055 2
14699 13047 13046 1
14700 13046 13052 1
14701 13048 13047 1
14702 13047 13049 1
14703 13048 13060 1
14704 13048 13196 1
14705 13050 13049 1
14706 13049 13062 1
14707 13051 13050 1
14708 13050 13059 1
14709 13052 13051 1
14710 13051 13056 1
14711 13052 13053 1
14712 13054 13053 1
14713 13053 13197 1
14714 13053 13198 1
14715 13055 13054 1
14716 13054 13199 1
14717 13054 13200 1
14718 13055 13201 1
14719 13057 13056 1
14720 13058 13057 1
14721 13057 13093 1
14722 13059 13058 1
14723 13058 13077 1
14724 13059 13075 1
14725 13061 13060 1
14726 13060 13066 2
14727 13062 13061 1
14728 13061 13063 1
14729 13061 13202 1
14730 13062 13076 1
14731 13064 13063 2
14732 13063 13070 1
14733 13065 13064 1
14734 13064 13067 1
14735 13066 13065 1
14736 13065 13203 1
14737 13065 13204 1
14738 13066 13205 1
14739 13068 13067 1
14740 13067 13206 1
14741 13067 13207 1
14742 13069 13068 1
14743 13068 13208 1
14744 13068 13209 1
14745 13070 13069 2
14746 13069 13074 1
14747 13070 13071 1
14748 13072 13071 1
14749 13071 13210 1
14750 13071 13211 1
14751 13073 13072 1
14752 13072 13147 1
14753 13072 13212 1
14754 13074 13073 1
14755 13073 13213 1
14756 13073 13214 1
14757 13074 13215 1
14758 13074 13216 1
14759 13076 13075 1
14760 13075 13079 1
14761 13076 13217 1
14762 13078 13077 1
14763 13077 13083 1
14764 13079 13078 1
14765 13078 13080 1
14766 13081 13080 1
14767 13080 13218 1
14768 13082 13081 1
14769 13081 13087 1
14770 13083 13082 1
14771 13082 13084 1
14772 13083 13092 1
14773 13085 13084 1
14774 13084 13094 1
14775 13086 13085 1
14776 13085 13091 1
14777 13087 13086 1
14778 13086 13088 1
14779 13087 13219 1
14780 13089 13088 1
14781 13088 13104 1
14782 13090 13089 1
14783 13089 13101 1
14784 13091 13090 1
14785 13090 13098 1
14786 13091 13096 1
14787 13093 13092 1
14788 13092 13095 1
14789 13093 13220 1
14790 13095 13094 1
14791 13094 13097 1
14792 13095 13113 1
14793 13097 13096 1
14794 13096 13100 1
14795 13097 13115 1
14796 13099 13098 1
14797 13098 13131 1
14798 13100 13099 1
14799 13099 13126 1
14800 13100 13124 1
14801 13102 13101 1
14802 13103 13102 1
14803 13102 13108 1
14804 13102 13221 1
14805 13104 13103 1
14806 13103 13105 1
14807 13103 13222 1
14808 13104 13150 1
14809 13104 13223 1
14810 13106 13105 1
14811 13105 13224 1
14812 13105 13225 1
14813 13107 13106 1
14814 13106 13226 1
14815 13106 13227 1
14816 13108 13107 1
14817 13107 13112 1
14818 13107 13228 1
14819 13108 13109 1
14820 13108 13229 1
14821 13110 13109 1
14822 13109 13230 1
14823 13109 13231 1
14824 13111 13110 1
14825 13110 13232 1
14826 13110 13233 1
14827 13112 13111 1
14828 13111 13234 1
14829 13111 13235 1
14830 13112 13236 1
14831 13114 13113 1
14832 13113 13119 1
14833 13115 13114 1
14834 13114 13116 1
14835 13115 13125 1
14836 13117 13116 1
14837 13118 13117 1
14838 13117 13123 1
14839 13117 13237 1
14840 13119 13118 1
14841 13118 13120 1
14842 13118 13238 1
14843 13121 13120 1
14844 13120 13239 1
14845 13120 13240 1
14846 13122 13121 1
14847 13121 13241 1
14848 13121 13242 1
14849 13123 13122 1
14850 13122 13243 1
14851 13122 13244 1
14852 13123 13245 1
14853 13123 13246 1
14854 13125 13124 1
14855 13124 13128 1
14856 13125 13247 1
14857 13127 13126 1
14858 13126 13129 1
14859 13128 13127 1
14860 13127 13132 1
14861 13128 13248 1
14862 13130 13129 1
14863 13129 13134 1
14864 13131 13130 1
14865 13130 13135 1
14866 13131 13249 1
14867 13133 13132 1
14868 13134 13133 1
14869 13133 13144 1
14870 13134 13137 1
14871 13136 13135 1
14872 13135 13141 1
14873 13135 13250 1
14874 13137 13136 1
14875 13136 13138 1
14876 13136 13251 1
14877 13137 13142 1
14878 13139 13138 1
14879 13138 13145 1
14880 13138 13252 1
14881 13140 13139 1
14882 13139 13253 1
14883 13139 13254 1
14884 13141 13140 1
14885 13140 13255 1
14886 13140 13256 1
14887 13141 13257 1
14888 13141 13258 1
14889 13143 13142 1
14890 13142 13146 1
14891 13144 13143 1
14892 13143 13154 1
14893 13144 13151 1
14894 13145 13146 1
14895 13145 13169 1
14896 13146 13165 1
14897 13147 13148 1
14898 13147 13149 1
14899 13147 13259 1
14900 13148 13260 1
14901 13148 13261 1
14902 13148 13262 1
14903 13149 13263 1
14904 13149 13264 1
14905 13149 13265 1
14906 13150 13266 1
14907 13152 13151 1
14908 13151 13267 1
14909 13153 13152 1
14910 13152 13268 1
14911 13154 13153 1
14912 13153 13158 1
14913 13154 13155 1
14914 13156 13155 1
14915 13155 13165 1
14916 13157 13156 1
14917 13156 13162 1
14918 13158 13157 1
14919 13157 13159 1
14920 13158 13269 1
14921 13160 13159 1
14922 13159 13270 1
14923 13161 13160 1
14924 13160 13271 1
14925 13162 13161 1
14926 13161 13168 1
14927 13162 13163 1
14928 13164 13163 1
14929 13163 13166 1
14930 13165 13164 1
14931 13164 13170 1
14932 13167 13166 1
14933 13166 13171 1
14934 13168 13167 1
14935 13167 13272 1
14936 13168 13273 1
14937 13170 13169 1
14938 13169 13274 1
14939 13170 13172 1
14940 13172 13171 1
14941 13171 13176 1
14942 13172 13173 1
14943 13174 13173 1
14944 13173 13275 1
14945 13173 13276 1
14946 13175 13174 1
14947 13174 13277 1
14948 13174 13278 1
14949 13176 13175 1
14950 13175 13279 1
14951 13175 13280 1
14952 13176 13177 2
14953 13281 13282 1
14954 13281 13286 1
14955 13281 13428 1
14956 13281 13429 1
14957 13283 13282 1
14958 13282 13430 1
14959 13282 13431 1
14960 13284 13283 1
14961 13283 13290 1
14962 13283 13432 1
14963 13285 13284 1
14964 13284 13287 1
14965 13284 13433 1
14966 13286 13285 1
14967 13285 13434 1
14968 13285 13435 1
14969 13288 13287 1
14970 13287 13294 1
14971 13287 13436 1
14972 13289 13288 1
14973 13288 13291 1
14974 13288 13437 1
14975 13290 13289 1
14976 13289 13438 1
14977 13289 13439 1
14978 13290 13440 1
14979 13290 13441 1
14980 13292 13291 1
14981 13293 13292 1
14982 13292 13298 1
14983 13292 13442 1
14984 13294 13293 1
14985 13293 13295 1
14986 13293 13443 1
14987 13294 13444 1
14988 13294 13445 1
14989 13296 13295 1
14990 13295 13305 2
14991 13297 13296 1
14992 13296 13302 1
14993 13298 13297 1
14994 13297 13299 1
14995 13298 13310 1
14996 13298 13446 1
14997 13300 13299 1
14998 13299 13312 1
14999 13301 13300 1
15000 13300 13309 1
15001 13302 13301 1
15002 13301 13306 1
15003 13302 13303 1
15004 13304 13303 1
15005 13303 13447 1
15006 13303 13448 1
15007 13305 13304 1
15008 13304 13449 1
15009 13304 13450 1
15010 13305 13451 1
15011 13307 13306 1
15012 13308 13307 1
15013 13307 13343 1
15014 13309 13308 1
15015 13308 13327 1
15016 13309 13325 1
15017 13311 13310 1
15018 13310 13316 2
15019 13312 13311 1
15020 13311 13313 1
15021 13311 13452 1
15022 13312 13326 1
15023 13314 13313 2
15024 13313 13320 1
15025 13315 13314 1
15026 13314 13317 1
15027 13316 13315 1
15028 13315 13453 1
15029 13315 13454 1
15030 13316 13455 1
15031 13318 13317 1
15032 13317 13456 1
15033 13317 13457 1
15034 13319 13318 1
15035 13318 13458 1
15036 13318 13459 1
15037 13320 13319 2
15038 13319 13324 1
15039 13320 13321 1
15040 13322 13321 1
15041 13321 13460 1
15042 13321 13461 1
15043 13323 13322 1
15044 13322 13397 1
15045 13322 13462 1
15046 13324 13323 1
15047 13323 13463 1
15048 13323 13464 1
15049 13324 13465 1
15050 13324 13466 1
15051 13326 13325 1
15052 13325 13329 1
15053 13326 13467 1
15054 13328 13327 1
15055 13327 13333 1
15056 13329 13328 1
15057 13328 13330 1
15058 13331 13330 1
15059 13330 13468 1
15060 13332 13331 1
15061 13331 13337 1
15062 13333 13332 1
15063 13332 13334 1
15064 13333 13342 1
15065 13335 13334 1
15066 13334 13344 1
15067 13336 13335 1
15068 13335 13341 1
15069 13337 13336 1
15070 13336 13338 1
15071 13337 13469 1
15072 13339 13338 1
15073 13338 13354 1
15074 13340 13339 1
15075 13339 13351 1
15076 13341 13340 1
15077 13340 13348 1
15078 13341 13346 1
15079 13343 13342 1
15080 13342 13345 1
15081 13343 13470 1
15082 13345 13344 1
15083 13344 13347 1
15084 13345 13363 1
15085 13347 13346 1
15086 13346 13350 1
15087 13347 13365 1
15088 13349 13348 1
15089 13348 13381 1
15090 13350 13349 1
15091 13349 13376 1
15092 13350 13374 1
15093 13352 13351 1
15094 13353 13352 1
15095 13352 13358 1
15096 13352 13471 1
15097 13354 13353 1
15098 13353 13355 1
15099 13353 13472 1
15100 13354 13400 1
15101 13354 13473 1
15102 13356 13355 1
15103 13355 13474 1
15104 13355 13475 1
15105 13357 13356 1
15106 13356 13476 1
15107 13356 13477 1
15108 13358 13357 1
15109 13357 13362 1
15110 13357 13478 1
15111 13358 13359 1
15112 13358 13479 1
15113 13360 13359 1
15114 13359 13480 1
15115 13359 13481 1
15116 13361 13360 1
15117 13360 13482 1
15118 13360 13483 1
15119 13362 13361 1
15120 13361 13484 1
15121 13361 13485 1
15122 13362 13486 1
15123 13364 13363 1
15124 13363 13369 1
15125 13365 13364 1
15126 13364 13366 1
15127 13365 13375 1
15128 13367 13366 1
15129 13368 13367 1
15130 13367 13373 1
15131 13367 13487 1
15132 13369 13368 1
15133 13368 13370 1
15134 13368 13488 1
15135 13371 13370 1
15136 13370 13489 1
15137 13370 13490 1
15138 13372 13371 1
15139 13371 13491 1
15140 13371 13492 1
15141 13373 13372 1
15142 13372 13493 1
15143 13372 13494 1
15144 13373 13495 1
15145 13373 13496 1
15146 13375 13374 1
15147 13374 13378 1
15148 13375 13497 1
15149 13377 13376 1
15150 13376 13379 1
15151 13378 13377 1
15152 13377 13382 1
15153 13378 13498 1
15154 13380 13379 1
15155 13379 13384 1
15156 13381 13380 1
15157 13380 13385 1
15158 13381 13499 1
15159 13383 13382 1
15160 13384 13383 1
15161 13383 13394 1
15162 13384 13387 1
15163 13386 13385 1
15164 13385 13391 1
15165 13385 13500 1
15166 13387 13386 1
15167 13386 13388 1
15168 13386 13501 1
15169 13387 13392 1
15170 13389 13388 1
15171 13388 13395 1
15172 13388 13502 1
15173 13390 13389 1
15174 13389 13503 1
15175 13389 13504 1
15176 13391 13390 1
15177 13390 13505 1
15178 13390 13506 1
15179 13391 13507 1
15180 13391 13508 1
15181 13393 13392 1
15182 13392 13396 1
15183 13394 13393 1
15184 13393 13404 1
15185 13394 13401 1
15186 13395 13396 1
15187 13395 13419 1
15188 13396 13415 1
15189 13397 13398 1
15190 13397 13399 1
15191 13397 13509 1
15192 13398 13510 1
15193 13398 13511 1
15194 13398 13512 1
15195 13399 13513 1
15196 13399 13514 1
15197 13399 13515 1
15198 13400 13516 1
15199 13402 13401 1
15200 13401 13517 1
15201 13403 13402 1
15202 13402 13518 1
15203 13404 13403 1
15204 13403 13408 1
15205 13404 13405 1
15206 13406 13405 1
15207 13405 13415 1
15208 13407 13406 1
15209 13406 13412 1
15210 13408 13407 1
15211 13407 13409 1
15212 13408 13519 1
15213 13410 13409 1
15214 13409 13520 1
15215 13411 13410 1
15216 13410 13521 1
15217 13412 13411 1
15218 13411 13418 1
15219 13412 13413 1
15220 13414 13413 1
15221 13413 13416 1
15222 13415 13414 1
15223 13414 13420 1
15224 13417 13416 1
15225 13416 13421 1
15226 13418 13417 1
15227 13417 13522 1
15228 13418 13523 1
15229 13420 13419 1
15230 13419 13524 1
15231 13420 13422 1
15232 13422 13421 1
15233 13421 13426 1
15234 13422 13423 1
15235 13424 13423 1
15236 13423 13525 1
15237 13423 13526 1
15238 13425 13424 1
15239 13424 13527 1
15240 13424 13528 1
15241 13426 13425 1
15242 13425 13529 1
15243 13425 13530 1
15244 13426 13427 2
15245 13531 13532 1
15246 13531 13536 1
15247 13531 13678 1
15248 13531 13679 1
15249 13533 13532 1
15250 13532 13680 1
15251 13532 13681 1
15252 13534 13533 1
15253 13533 13540 1
15254 13533 13682 1
15255 13535 13534 1
15256 13534 13537 1
15257 13534 13683 1
15258 13536 13535 1
15259 13535 13684 1
15260 13535 13685 1
15261 13538 13537 1
15262 13537 13544 1
15263 13537 13686 1
15264 13539 13538 1
15265 13538 13541 1
15266 13538 13687 1
15267 13540 13539 1
15268 13539 13688 1
15269 13539 13689 1
15270 13540 13690 1
15271 13540 13691 1
15272 13542 13541 1
15273 13543 13542 1
15274 13542 13548 1
15275 13542 13692 1
15276 13544 13543 1
15277 13543 13545 1
15278 13543 13693 1
15279 13544 13694 1
15280 13544 13695 1
15281 13546 13545 1
15282 13545 13555 2
15283 13547 13546 1
15284 13546 13552 1
15285 13548 13547 1
15286 13547 13549 1
15287 13548 13560 1
15288 13548 13696 1
15289 13550 13549 1
15290 13549 13562 1
15291 13551 13550 1
15292 13550 13559 1
15293 13552 13551 1
15294 13551 13556 1
15295 13552 13553 1
15296 13554 13553 1
15297 13553 13697 1
15298 13553 13698 1
15299 13555 13554 1
15300 13554 13699 1
15301 13554 13700 1
15302 13555 13701 1
15303 13557 13556 1
15304 13558 13557 1
15305 13557 13593 1
15306 13559 13558 1
15307 13558 13577 1
15308 13559 13575 1
15309 13561 13560 1
15310 13560 13566 2
15311 13562 13561 1
15312 13561 13563 1
15313 13561 13702 1
15314 13562 13576 1
15315 13564 13563 2
15316 13563 13570 1
15317 13565 13564 1
15318 13564 13567 1
15319 13566 13565 1
15320 13565 13703 1
15321 13565 13704 1
15322 13566 13705 1
15323 13568 13567 1
15324 13567 13706 1
15325 13567 13707 1
15326 13569 13568 1
15327 13568 13708 1
15328 13568 13709 1
15329 13570 13569 2
15330 13569 13574 1
15331 13570 13571 1
15332 13572 13571 1
15333 13571 13710 1
15334 13571 13711 1
15335 13573 13572 1
15336 13572 13647 1
15337 13572 13712 1
15338 13574 13573 1
15339 13573 13713 1
15340 13573 13714 1
15341 13574 13715 1
15342 13574 13716 1
15343 13576 13575 1
15344 13575 13579 1
15345 13576 13717 1
15346 13578 13577 1
15347 13577 13583 1
15348 13579 13578 1
15349 13578 13580 1
15350 13581 13580 1
15351 13580 13718 1
15352 13582 13581 1
15353 13581 13587 1
15354 13583 13582 1
15355 13582 13584 1
15356 13583 13592 1
15357 13585 13584 1
15358 13584 13594 1
15359 13586 13585 1
15360 13585 13591 1
15361 13587 13586 1
15362 13586 13588 1
15363 13587 13719 1
15364 13589 13588 1
15365 13588 13604 1
15366 13590 13589 1
15367 13589 13601 1
15368 13591 13590 1
15369 13590 13598 1
15370 13591 13596 1
15371 13593 13592 1
15372 13592 13595 1
15373 13593 13720 1
15374 13595 13594 1
15375 13594 13597 1
15376 13595 13613 1
15377 13597 13596 1
15378 13596 13600 1
15379 13597 13615 1
15380 13599 13598 1
15381 13598 13631 1
15382 13600 13599 1
15383 13599 13626 1
15384 13600 13624 1
15385 13602 13601 1
15386 13603 13602 1
15387 13602 13608 1
15388 13602 13721 1
15389 13604 13603 1
15390 13603 13605 1
15391 13603 13722 1
15392 13604 13650 1
15393 13604 13723 1
15394 13606 13605 1
15395 13605 13724 1
15396 13605 13725 1
15397 13607 13606 1
15398 13606 13726 1
15399 13606 13727 1
15400 13608 13607 1
15401 13607 13612 1
15402 13607 13728 1
15403 13608 13609 1
15404 13608 13729 1
15405 13610 13609 1
15406 13609 13730 1
15407 13609 13731 1
15408 13611 13610 1
15409 13610 13732 1
15410 13610 13733 1
15411 13612 13611 1
15412 13611 13734 1
15413 13611 13735 1
15414 13612 13736 1
15415 13614 13613 1
15416 13613 13619 1
15417 13615 13614 1
15418 13614 13616 1
15419 13615 13625 1
15420 13617 13616 1
15421 13618 13617 1
15422 13617 13623 1
15423 13617 13737 1
15424 13619 13618 1
15425 13618 13620 1
15426 13618 13738 1
15427 13621 13620 1
15428 13620 13739 1
15429 13620 13740 1
15430 13622 13621 1
15431 13621 13741 1
15432 13621 13742 1
15433 13623 13622 1
15434 13622 13743 1
15435 13622 13744 1
15436 13623 13745 1
15437 13623 13746 1
15438 13625 13624 1
15439 13624 13628 1
15440 13625 13747 1
15441 13627 13626 1
15442 13626 13629 1
15443 13628 13627 1
15444 13627 13632 1
15445 13628 13748 1
15446 13630 13629 1
15447 13629 13634 1
15448 13631 13630 1
15449 13630 13635 1
15450 13631 13749 1
15451 13633 13632 1
15452 13634 13633 1
15453 13633 13644 1
15454 13634 13637 1
15455 13636 13635 1
15456 13635 13641 1
15457 13635 13750 1
15458 13637 13636 1
15459 13636 13638 1
15460 13636 13751 1
15461 13637 13642 1
15462 13639 13638 1
15463 13638 13645 1
15464 13638 13752 1
15465 13640 13639 1
15466 13639 13753 1
15467 13639 13754 1
15468 13641 13640 1
15469 13640 13755 1
15470 13640 13756 1
15471 13641 13757 1
15472 13641 13758 1
15473 13643 13642 1
15474 13642 13646 1
15475 13644 13643 1
15476 13643 13654 1
15477 13644 13651 1
15478 13645 13646 1
15479 13645 13669 1
15480 13646 13665 1
15481 13647 13648 1
15482 13647 13649 1
15483 13647 13759 1
15484 13648 13760 1
15485 13648 13761 1
15486 13648 13762 1
15487 13649 13763 1
15488 13649 13764 1
15489 13649 13765 1
15490 13650 13766 1
15491 13652 13651 1
15492 13651 13767 1
15493 13653 13652 1
15494 13652 13768 1
15495 13654 13653 1
15496 13653 13658 1
15497 13654 13655 1
15498 13656 13655 1
15499 13655 13665 1
15500 13657 13656 1
15501 13656 13662 1
15502 13658 13657 1
15503 13657 13659 1
15504 13658 13769 1
15505 13660 13659 1
15506 13659 13770 1
15507 13661 13660 1
15508 13660 13771 1
15509 13662 13661 1
15510 13661 13668 1
15511 13662 13663 1
15512 13664 13663 1
15513 13663 13666 1
15514 13665 13664 1
15515 13664 13670 1
15516 13667 13666 1
15517 13666 13671 1
15518 13668 13667 1
15519 13667 13772 1
15520 13668 13773 1
15521 13670 13669 1
15522 13669 13774 1
15523 13670 13672 1
15524 13672 13671 1
15525 13671 13676 1
15526 13672 13673 1
15527 13674 13673 1
15528 13673 13775 1
15529 13673 13776 1
15530 13675 13674 1
15531 13674 13777 1
15532 13674 13778 1
15533 13676 13675 1
15534 13675 13779 1
15535 13675 13780 1
15536 13676 13677 2
15537 13781 13782 1
15538 13781 13786 1
15539 13781 13928 1
15540 13781 13929 1
15541 13783 13782 1
15542 13782 13930 1
15543 13782 13931 1
15544 13784 13783 1
15545 13783 13790 1
15546 13783 13932 1
15547 13785 13784 1
15548 13784 13787 1
15549 13784 13933 1
15550 13786 13785 1
15551 13785 13934 1
15552 13785 13935 1
15553 13788 13787 1
15554 13787 13794 1
15555 13787 13936 1
15556 13789 13788 1
15557 13788 13791 1
15558 13788 13937 1
15559 13790 13789 1
15560 13789 13938 1
15561 13789 13939 1
15562 13790 13940 1
15563 13790 13941 1
15564 13792 13791 1
15565 13793 13792 1
15566 13792 13798 1
15567 13792 13942 1
15568 13794 13793 1
15569 13793 13795 1
15570 13793 13943 1
15571 13794 13944 1
15572 13794 13945 1
15573 13796 13795 1
15574 13795 13805 2
15575 13797 13796 1
15576 13796 13802 1
15577 13798 13797 1
15578 13797 13799 1
15579 13798 13810 1
15580 13798 13946 1
15581 13800 13799 1
15582 13799 13812 1
15583 13801 13800 1
15584 13800 13809 1
15585 13802 13801 1
15586 13801 13806 1
15587 13802 13803 1
15588 13804 13803 1
15589 13803 13947 1
15590 13803 13948 1
15591 13805 13804 1
15592 13804 13949 1
15593 13804 13950 1
15594 13805 13951 1
15595 13807 13806 1
15596 13808 13807 1
15597 13807 13843 1
15598 13809 13808 1
15599 13808 13827 1
15600 13809 13825 1
15601 13811 13810 1
15602 13810 13816 2
15603 13812 13811 1
15604 13811 13813 1
15605 13811 13952 1
15606 13812 13826 1
15607 13814 13813 2
15608 13813 13820 1
15609 13815 13814 1
15610 13814 13817 1
15611 13816 13815 1
15612 13815 13953 1
15613 13815 13954 1
15614 13816 13955 1
15615 13818 13817 1
15616 13817 13956 1
15617 13817 13957 1
15618 13819 13818 1
15619 13818 13958 1
15620 13818 13959 1
15621 13820 13819 2
15622 13819 13824 1
15623 13820 13821 1
15624 13822 13821 1
15625 13821 13960 1
15626 13821 13961 1
15627 13823 13822 1
15628 13822 13897 1
15629 13822 13962 1
15630 13824 13823 1
15631 13823 13963 1
15632 13823 13964 1
15633 13824 13965 1
15634 13824 13966 1
15635 13826 13825 1
15636 13825 13829 1
15637 13826 13967 1
15638 13828 13827 1
15639 13827 13833 1
15640 13829 13828 1
15641 13828 13830 1
15642 13831 13830 1
15643 13830 13968 1
15644 13832 13831 1
15645 13831 13837 1
15646 13833 13832 1
15647 13832 13834 1
15648 13833 13842 1
15649 13835 13834 1
15650 13834 13844 1
15651 13836 13835 1
15652 13835 13841 1
15653 13837 13836 1
15654 13836 13838 1
15655 13837 13969 1
15656 13839 13838 1
15657 13838 13854 1
15658 13840 13839 1
15659 13839 13851 1
15660 13841 13840 1
15661 13840 13848 1
15662 13841 13846 1
15663 13843 13842 1
15664 13842 13845 1
15665 13843 13970 1
15666 13845 13844 1
15667 13844 13847 1
15668 13845 13863 1
15669 13847 13846 1
15670 13846 13850 1
15671 13847 13865 1
15672 13849 13848 1
15673 13848 13881 1
15674 13850 13849 1
15675 13849 13876 1
15676 13850 13874 1
15677 13852 13851 1
15678 13853 13852 1
15679 13852 13858 1
15680 13852 13971 1
15681 13854 13853 1
15682 13853 13855 1
15683 13853 13972 1
15684 13854 13900 1
15685 13854 13973 1
15686 13856 13855 1
15687 13855 13974 1
15688 13855 13975 1
15689 13857 13856 1
15690 13856 13976 1
15691 13856 13977 1
15692 13858 13857 1
15693 13857 13862 1
15694 13857 13978 1
15695 13858 13859 1
15696 13858 13979 1
15697 13860 13859 1
15698 13859 13980 1
15699 13859 13981 1
15700 13861 13860 1
15701 13860 13982 1
15702 13860 13983 1
15703 13862 13861 1
15704 13861 13984 1
15705 13861 13985 1
15706 13862 13986 1
15707 13864 13863 1
15708 13863 13869 1
15709 13865 13864 1
15710 13864 13866 1
15711 13865 13875 1
15712 13867 13866 1
15713 13868 13867 1
15714 13867 13873 1
15715 13867 13987 1
15716 13869 13868 1
15717 13868 13870 1
15718 13868 13988 1
15719 13871 13870 1
15720 13870 13989 1
15721 13870 13990 1
15722 13872 13871 1
15723 13871 13991 1
15724 13871 13992 1
15725 13873 13872 1
15726 13872 13993 1
15727 13872 13994 1
15728 13873 13995 1
15729 13873 13996 1
15730 13875 13874 1
15731 13874 13878 1
15732 13875 13997 1
15733 13877 13876 1
15734 13876 13879 1
15735 13878 13877 1
15736 13877 13882 1
15737 13878 13998 1
15738 13880 13879 1
15739 13879 13884 1
15740 13881 13880 1
15741 13880 13885 1
15742 13881 13999 1
15743 13883 13882 1
15744 13884 13883 1
15745 13883 13894 1
15746 13884 13887 1
15747 13886 13885 1
15748 13885 13891 1
15749 13885 14000 1
15750 13887 13886 1
15751 13886 13888 1
15752 13886 14001 1
15753 13887 13892 1
15754 13889 13888 1
15755 13888 13895 1
15756 13888 14002 1
15757 13890 13889 1
15758 13889 14003 1
15759 13889 14004 1
15760 13891 13890 1
15761 13890 14005 1
15762 13890 14006 1
15763 13891 14007 1
15764 13891 14008 1
15765 13893 13892 1
15766 13892 13896 1
15767 13894 13893 1
15768 13893 13904 1
15769 13894 13901 1
15770 13895 13896 1
15771 13895 13919 1
15772 13896 13915 1
15773 13897 13898 1
15774 13897 13899 1
15775 13897 14009 1
15776 13898 14010 1
15777 13898 14011 1
15778 13898 14012 1
15779 13899 14013 1
15780 13899 14014 1
15781 13899 14015 1
15782 13900 14016 1
15783 13902 13901 1
15784 13901 14017 1
15785 13903 13902 1
15786 13902 14018 1
15787 13904 13903 1
15788 13903 13908 1
15789 13904 13905 1
15790 13906 13905 1
15791 13905 13915 1
15792 13907 13906 1
15793 13906 13912 1
15794 13908 13907 1
15795 13907 13909 1
15796 13908 14019 1
15797 13910 13909 1
15798 13909 14020 1
15799 13911 13910 1
15800 13910 14021 1
15801 13912 13911 1
15802 13911 13918 1
15803 13912 13913 1
15804 13914 13913 1
15805 13913 13916 1
15806 13915 13914 1
15807 13914 13920 1
15808 13917 13916 1
15809 13916 13921 1
15810 13918 13917 1
15811 13917 14022 1
15812 13918 14023 1
15813 13920 13919 1
15814 13919 14024 1
15815 13920 13922 1
15816 13922 13921 1
15817 13921 13926 1
15818 13922 13923 1
15819 13924 13923 1
15820 13923 14025 1
15821 13923 14026 1
15822 13925 13924 1
15823 13924 14027 1
15824 13924 14028 1
15825 13926 13925 1
15826 13925 14029 1
15827 13925 14030 1
15828 13926 13927 2
15829 14031 14032 1
15830 14031 14036 1
15831 14031 14178 1
15832 14031 14179 1
15833 14033 14032 1
15834 14032 14180 1
15835 14032 14181 1
15836 14034 14033 1
15837 14033 14040 1
15838 14033 14182 1
15839 14035 14034 1
15840 14034 14037 1
15841 14034 14183 1
15842 14036 14035 1
15843 14035 14184 1
15844 14035 14185 1
15845 14038 14037 1
15846 14037 14044 1
15847 14037 14186 1
15848 14039 14038 1
15849 14038 14041 1
15850 14038 14187 1
15851 14040 14039 1
15852 14039 14188 1
15853 14039 14189 1
15854 14040 14190 1
15855 14040 14191 1
15856 14042 14041 1
15857 14043 14042 1
15858 14042 14048 1
15859 14042 14192 1
15860 14044 14043 1
15861 14043 14045 1
15862 14043 14193 1
15863 14044 14194 1
15864 14044 14195 1
15865 14046 14045 1
15866 14045 14055 2
15867 14047 14046 1
15868 14046 14052 1
15869 14048 14047 1
15870 14047 14049 1
15871 14048 14060 1
15872 14048 14196 1
15873 14050 14049 1
15874 14049 14062 1
15875 14051 14050 1
15876 14050 14059 1
15877 14052 14051 1
15878 14051 14056 1
15879 14052 14053 1
15880 14054 14053 1
15881 14053 14197 1
15882 14053 14198 1
15883 14055 14054 1
15884 14054 14199 1
15885 14054 14200 1
15886 14055 14201 1
15887 14057 14056 1
15888 14058 14057 1
15889 14057 14093 1
15890 14059 14058 1
15891 14058 14077 1
15892 14059 14075 1
15893 14061 14060 1
15894 14060 14066 2
15895 14062 14061 1
15896 14061 14063 1
15897 14061 14202 1
15898 14062 14076 1
15899 14064 14063 2
15900 14063 14070 1
15901 14065 14064 1
15902 14064 14067 1
15903 14066 14065 1
15904 14065 14203 1
15905 14065 14204 1
15906 14066 14205 1
15907 14068 14067 1
15908 14067 14206 1
15909 14067 14207 1
15910 14069 14068 1
15911 14068 14208 1
15912 14068 14209 1
15913 14070 14069 2
15914 14069 14074 1
15915 14070 14071 1
15916 14072 14071 1
15917 14071 14210 1
15918 14071 14211 1
15919 14073 14072 1
15920 14072 14147 1
15921 14072 14212 1
15922 14074 14073 1
15923 14073 14213 1
15924 14073 14214 1
15925 14074 14215 1
15926 14074 14216 1
15927 14076 14075 1
15928 14075 14079 1
15929 14076 14217 1
15930 14078 14077 1
15931 14077 14083 1
15932 14079 14078 1
15933 14078 14080 1
15934 14081 14080 1
15935 14080 14218 1
15936 14082 14081 1
15937 14081 14087 1
15938 14083 14082 1
15939 14082 14084 1
15940 14083 14092 1
15941 14085 14084 1
15942 14084 14094 1
15943 14086 14085 1
15944 14085 14091 1
15945 14087 14086 1
15946 14086 14088 1
15947 14087 14219 1
15948 14089 14088 1
15949 14088 14104 1
15950 14090 14089 1
15951 14089 14101 1
15952 14091 14090 1
15953 14090 14098 1
15954 14091 14096 1
15955 14093 14092 1
15956 14092 14095 1
15957 14093 14220 1
15958 14095 14094 1
15959 14094 14097 1
15960 14095 14113 1
15961 14097 14096 1
15962 14096 14100 1
15963 14097 14115 1
15964 14099 14098 1
15965 14098 14131 1
15966 14100 14099 1
15967 14099 14126 1
15968 14100 14124 1
15969 14102 14101 1
15970 14103 14102 1
15971 14102 14108 1
15972 14102 14221 1
15973 14104 14103 1
15974 14103 14105 1
15975 14103 14222 1
15976 14104 14150 1
15977 14104 14223 1
15978 14106 14105 1
15979 14105 14224 1
15980 14105 14225 1
15981 14107 14106 1
15982 14106 14226 1
15983 14106 14227 1
15984 14108 14107 1
15985 14107 14112 1
15986 14107 14228 1
15987 14108 14109 1
15988 14108 14229 1
15989 14110 14109 1
15990 14109 14230 1
15991 14109 14231 1
15992 14111 14110 1
15993 14110 14232 1
15994 14110 14233 1
15995 14112 14111 1
15996 14111 14234 1
15997 14111 14235 1
15998 14112 14236 1
15999 14114 14113 1
16000 14113 14119 1
16001 14115 14114 1
16002 14114 14116 1
16003 14115 14125 1
16004 14117 14116 1
16005 14118 14117 1
16006 14117 14123 1
16007 14117 14237 1
16008 14119 14118 1
16009 14118 14120 1
16010 14118 14238 1
16011 14121 14120 1
16012 14120 14239 1
16013 14120 14240 1
16014 14122 14121 1
16015 14121 14241 1
16016 14121 14242 1
16017 14123 14122 1
16018 14122 14243 1
16019 14122 14244 1
16020 14123 14245 1
16021 14123 14246 1
16022 14125 14124 1
16023 14124 14128 1
16024 14125 14247 1
16025 14127 14126 1
16026 14126 14129 1
16027 14128 14127 1
16028 14127 14132 1
16029 14128 14248 1
16030 14130 14129 1
16031 14129 14134 1
16032 14131 14130 1
16033 14130 14135 1
16034 14131 14249 1
16035 14133 14132 1
16036 14134 14133 1
16037 14133 14144 1
16038 14134 14137 1
16039 14136 14135 1
16040 14135 14141 1
16041 14135 14250 1
16042 14137 14136 1
16043 14136 14138 1
16044 14136 14251 1
16045 14137 14142 1
16046 14139 14138 1
16047 14138 14145 1
16048 14138 14252 1
16049 14140 14139 1
16050 14139 14253 1
16051 14139 14254 1
16052 14141 14140 1
16053 14140 14255 1
16054 14140 14256 1
16055 14141 14257 1
16056 14141 14258 1
16057 14143 14142 1
16058 14142 14146 1
16059 14144 14143 1
16060 14143 14154 1
16061 14144 14151 1
16062 14145 14146 1
16063 14145 14169 1
16064 14146 14165 1
16065 14147 14148 1
16066 14147 14149 1
16067 14147 14259 1
16068 14148 14260 1
16069 14148 14261 1
16070 14148 14262 1
16071 14149 14263 1
16072 14149 14264 1
16073 14149 14265 1
16074 14150 14266 1
16075 14152 14151 1
16076 14151 14267 1
16077 14153 14152 1
16078 14152 14268 1
16079 14154 14153 1
16080 14153 14158 1
16081 14154 14155 1
16082 14156 14155 1
16083 14155 14165 1
16084 14157 14156 1
16085 14156 14162 1
16086 14158 14157 1
16087 14157 14159 1
16088 14158 14269 1
16089 14160 14159 1
16090 14159 14270 1
16091 14161 14160 1
16092 14160 14271 1
16093 14162 14161 1
16094 14161 14168 1
16095 14162 14163 1
16096 14164 14163 1
16097 14163 14166 1
16098 14165 14164 1
16099 14164 14170 1
16100 14167 14166 1
16101 14166 14171 1
16102 14168 14167 1
16103 14167 14272 1
16104 14168 14273 1
16105 14170 14169 1
16106 14169 14274 1
16107 14170 14172 1
16108 14172 14171 1
16109 14171 14176 1
16110 14172 14173 1
16111 14174 14173 1
16112 14173 14275 1
16113 14173 14276 1
16114 14175 14174 1
16115 14174 14277 1
16116 14174 14278 1
16117 14176 14175 1
16118 14175 14279 1
16119 14175 14280 1
16120 14176 14177 2
16121 14281 14282 un
16122 14281 14286 un
16123 14281 14336 1
16124 14283 14282 un
16125 14282 14338 1
16126 14284 14283 un
16127 14283 14290 1
16128 14285 14284 un
16129 14284 14287 1
16130 14286 14285 un
16131 14285 14337 1
16132 14286 14334 1
16133 14288 14287 1
16134 14287 14350 1
16135 14287 14351 1
16136 14289 14288 un
16137 14288 14294 un
16138 14290 14289 1
16139 14289 14291 un
16140 14290 14352 1
16141 14290 14353 1
16142 14292 14291 un
16143 14291 14339 1
16144 14293 14292 un
16145 14292 14340 1
16146 14294 14293 un
16147 14293 14298 un
16148 14294 14295 un
16149 14296 14295 un
16150 14295 14354 1
16151 14297 14296 un
16152 14296 14302 un
16153 14298 14297 un
16154 14297 14299 1
16155 14298 14341 1
16156 14300 14299 1
16157 14299 14306 1
16158 14301 14300 1
16159 14300 14303 1
16160 14302 14301 un
16161 14301 14310 un
16162 14302 14307 un
16163 14304 14303 1
16164 14303 14355 1
16165 14303 14356 1
16166 14305 14304 un
16167 14304 14343 1
16168 14304 14357 1
16169 14306 14305 1
16170 14305 14342 1
16171 14305 14358 1
16172 14306 14359 1
16173 14306 14360 1
16174 14308 14307 un
16175 14307 14345 1
16176 14309 14308 un
16177 14308 14314 1
16178 14310 14309 un
16179 14309 14311 1
16180 14310 14344 1
16181 14312 14311 1
16182 14311 14347 2
16183 14313 14312 un
16184 14312 14318 un
16185 14314 14313 1
16186 14313 14315 1
16187 14314 14346 2
16188 14316 14315 1
16189 14315 14361 1
16190 14315 14362 1
16191 14317 14316 1
16192 14316 14363 1
16193 14316 14364 1
16194 14318 14317 un
16195 14317 14322 un
16196 14318 14319 un
16197 14320 14319 un
16198 14321 14320 un
16199 14320 14329 un
16200 14322 14321 un
16201 14321 14326 1
16202 14322 14323 1
16203 14324 14323 1
16204 14323 14365 1
16205 14323 14366 1
16206 14325 14324 1
16207 14324 14367 1
16208 14324 14368 1
16209 14326 14325 1
16210 14325 14369 1
16211 14325 14370 1
16212 14326 14327 1
16213 14326 14371 1
16214 14328 14327 1
16215 14327 14372 1
16216 14327 14373 1
16217 14329 14328 un
16218 14328 14333 un
16219 14329 14330 un
16220 14331 14330 un
16221 14330 14374 1
16222 14332 14331 un
16223 14331 14375 1
16224 14333 14332 un
16225 14332 14349 1
16226 14333 14348 1
16227 14334 14335 1
16228 14334 14376 1
16229 14334 14377 1
16230 14335 14378 1
16231 14335 14379 1
16232 14335 14380 1
16233 14336 14381 1
16234 14336 14382 1
16235 14336 14383 1
16236 14337 14384 1
16237 14337 14385 1
16238 14337 14386 1
16239 14338 14387 1
16240 14338 14388 1
16241 14338 14389 1
16242 14339 14390 1
16243 14339 14391 1
16244 14339 14392 1
16245 14340 14393 1
16246 14340 14394 1
16247 14340 14395 1
16248 14341 14396 1
16249 14342 14397 1
16250 14342 14398 1
16251 14342 14399 1
16252 14343 14400 1
16253 14343 14401 1
16254 14343 14402 1
16255 14344 14403 1
16256 14345 14404 1
16257 14348 14405 1
16258 14348 14406 1
16259 14348 14407 1
16260 14349 14408 1
16261 14349 14409 1
16262 14349 14410 1
16263 14411 14412 un
16264 14411 14416 un
16265 14411 14466 1
16266 14413 14412 un
16267 14412 14468 1
16268 14414 14413 un
16269 14413 14420 1
16270 14415 14414 un
16271 14414 14417 1
16272 14416 14415 un
16273 14415 14467 1
16274 14416 14464 1
16275 14418 14417 1
16276 14417 14480 1
16277 14417 14481 1
16278 14419 14418 un
16279 14418 14424 un
16280 14420 14419 1
16281 14419 14421 un
16282 14420 14482 1
16283 14420 14483 1
16284 14422 14421 un
16285 14421 14469 1
16286 14423 14422 un
16287 14422 14470 1
16288 14424 14423 un
16289 14423 14428 un
16290 14424 14425 un
16291 14426 14425 un
16292 14425 14484 1
16293 14427 14426 un
16294 14426 14432 un
16295 14428 14427 un
16296 14427 14429 1
16297 14428 14471 1
16298 14430 14429 1
16299 14429 14436 1
16300 14431 14430 1
16301 14430 14433 1
16302 14432 14431 un
16303 14431 14440 un
16304 14432 14437 un
16305 14434 14433 1
16306 14433 14485 1
16307 14433 14486 1
16308 14435 14434 un
16309 14434 14473 1
16310 14434 14487 1
16311 14436 14435 1
16312 14435 14472 1
16313 14435 14488 1
16314 14436 14489 1
16315 14436 14490 1
16316 14438 14437 un
16317 14437 14475 1
16318 14439 14438 un
16319 14438 14444 1
16320 14440 14439 un
16321 14439 14441 1
16322 14440 14474 1
16323 14442 14441 1
16324 14441 14477 2
16325 14443 14442 un
16326 14442 14448 un
16327 14444 14443 1
16328 14443 14445 1
16329 14444 14476 2
16330 14446 14445 1
16331 14445 14491 1
16332 14445 14492 1
16333 14447 14446 1
16334 14446 14493 1
16335 14446 14494 1
16336 14448 14447 un
16337 14447 14452 un
16338 14448 14449 un
16339 14450 14449 un
16340 14451 14450 un
16341 14450 14459 un
16342 14452 14451 un
16343 14451 14456 1
16344 14452 14453 1
16345 14454 14453 1
16346 14453 14495 1
16347 14453 14496 1
16348 14455 14454 1
16349 14454 14497 1
16350 14454 14498 1
16351 14456 14455 1
16352 14455 14499 1
16353 14455 14500 1
16354 14456 14457 1
16355 14456 14501 1
16356 14458 14457 1
16357 14457 14502 1
16358 14457 14503 1
16359 14459 14458 un
16360 14458 14463 un
16361 14459 14460 un
16362 14461 14460 un
16363 14460 14504 1
16364 14462 14461 un
16365 14461 14505 1
16366 14463 14462 un
16367 14462 14479 1
16368 14463 14478 1
16369 14464 14465 1
16370 14464 14506 1
16371 14464 14507 1
16372 14465 14508 1
16373 14465 14509 1
16374 14465 14510 1
16375 14466 14511 1
16376 14466 14512 1
16377 14466 14513 1
16378 14467 14514 1
16379 14467 14515 1
16380 14467 14516 1
16381 14468 14517 1
16382 14468 14518 1
16383 14468 14519 1
16384 14469 14520 1
16385 14469 14521 1
16386 14469 14522 1
16387 14470 14523 1
16388 14470 14524 1
16389 14470 14525 1
16390 14471 14526 1
16391 14472 14527 1
16392 14472 14528 1
16393 14472 14529 1
16394 14473 14530 1
16395 14473 14531 1
16396 14473 14532 1
16397 14474 14533 1
16398 14475 14534 1
16399 14478 14535 1
16400 14478 14536 1
16401 14478 14537 1
16402 14479 14538 1
16403 14479 14539 1
16404 14479 14540 1
16405 14541 14542 un
16406 14541 14546 un
16407 14541 14596 1
16408 14543 14542 un
16409 14542 14598 1
16410 14544 14543 un
16411 14543 14550 1
16412 14545 14544 un
16413 14544 14547 1
16414 14546 14545 un
16415 14545 14597 1
16416 14546 14594 1
16417 14548 14547 1
16418 14547 14610 1
16419 14547 14611 1
16420 14549 14548 un
16421 14548 14554 un
16422 14550 14549 1
16423 14549 14551 un
16424 14550 14612 1
16425 14550 14613 1
16426 14552 14551 un
16427 14551 14599 1
16428 14553 14552 un
16429 14552 14600 1
16430 14554 14553 un
16431 14553 14558 un
16432 14554 14555 un
16433 14556 14555 un
16434 14555 14614 1
16435 14557 14556 un
16436 14556 14562 un
16437 14558 14557 un
16438 14557 14559 1
16439 14558 14601 1
16440 14560 14559 1
16441 14559 14566 1
16442 14561 14560 1
16443 14560 14563 1
16444 14562 14561 un
16445 14561 14570 un
16446 14562 14567 un
16447 14564 14563 1
16448 14563 14615 1
16449 14563 14616 1
16450 14565 14564 un
16451 14564 14603 1
16452 14564 14617 1
16453 14566 14565 1
16454 14565 14602 1
16455 14565 14618 1
16456 14566 14619 1
16457 14566 14620 1
16458 14568 14567 un
16459 14567 14605 1
16460 14569 14568 un
16461 14568 14574 1
16462 14570 14569 un
16463 14569 14571 1
16464 14570 14604 1
16465 14572 14571 1
16466 14571 14607 2
16467 14573 14572 un
16468 14572 14578 un
16469 14574 14573 1
16470 14573 14575 1
16471 14574 14606 2
16472 14576 14575 1
16473 14575 14621 1
16474 14575 14622 1
16475 14577 14576 1
16476 14576 14623 1
16477 14576 14624 1
16478 14578 14577 un
16479 14577 14582 un
16480 14578 14579 un
16481 14580 14579 un
16482 14581 14580 un
16483 14580 14589 un
16484 14582 14581 un
16485 14581 14586 1
16486 14582 14583 1
16487 14584 14583 1
16488 14583 14625 1
16489 14583 14626 1
16490 14585 14584 1
16491 14584 14627 1
16492 14584 14628 1
16493 14586 14585 1
16494 14585 14629 1
16495 14585 14630 1
16496 14586 14587 1
16497 14586 14631 1
16498 14588 14587 1
16499 14587 14632 1
16500 14587 14633 1
16501 14589 14588 un
16502 14588 14593 un
16503 14589 14590 un
16504 14591 14590 un
16505 14590 14634 1
16506 14592 14591 un
16507 14591 14635 1
16508 14593 14592 un
16509 14592 14609 1
16510 14593 14608 1
16511 14594 14595 1
16512 14594 14636 1
16513 14594 14637 1
16514 14595 14638 1
16515 14595 14639 1
16516 14595 14640 1
16517 14596 14641 1
16518 14596 14642 1
16519 14596 14643 1
16520 14597 14644 1
16521 14597 14645 1
16522 14597 14646 1
16523 14598 14647 1
16524 14598 14648 1
16525 14598 14649 1
16526 14599 14650 1
16527 14599 14651 1
16528 14599 14652 1
16529 14600 14653 1
16530 14600 14654 1
16531 14600 14655 1
16532 14601 14656 1
16533 14602 14657 1
16534 14602 14658 1
16535 14602 14659 1
16536 14603 14660 1
16537 14603 14661 1
16538 14603 14662 1
16539 14604 14663 1
16540 14605 14664 1
16541 14608 14665 1
16542 14608 14666 1
16543 14608 14667 1
16544 14609 14668 1
16545 14609 14669 1
16546 14609 14670 1
16547 14671 14672 un
16548 14671 14676 un
16549 14671 14726 1
16550 14673 14672 un
16551 14672 14728 1
16552 14674 14673 un
16553 14673 14680 1
16554 14675 14674 un
16555 14674 14677 1
16556 14676 14675 un
16557 14675 14727 1
16558 14676 14724 1
16559 14678 14677 1
16560 14677 14740 1
16561 14677 14741 1
16562 14679 14678 un
16563 14678 14684 un
16564 14680 14679 1
16565 14679 14681 un
16566 14680 14742 1
16567 14680 14743 1
16568 14682 14681 un
16569 14681 14729 1
16570 14683 14682 un
16571 14682 14730 1
16572 14684 14683 un
16573 14683 14688 un
16574 14684 14685 un
16575 14686 14685 un
16576 14685 14744 1
16577 14687 14686 un
16578 14686 14692 un
16579 14688 14687 un
16580 14687 14689 1
16581 14688 14731 1
16582 14690 14689 1
16583 14689 14696 1
16584 14691 14690 1
16585 14690 14693 1
16586 14692 14691 un
16587 14691 14700 un
16588 14692 14697 un
16589 14694 14693 1
16590 14693 14745 1
16591 14693 14746 1
16592 14695 14694 un
16593 14694 14733 1
16594 14694 14747 1
16595 14696 14695 1
16596 14695 14732 1
16597 14695 14748 1
16598 14696 14749 1
16599 14696 14750 1
16600 14698 14697 un
16601 14697 14735 1
16602 14699 14698 un
16603 14698 14704 1
16604 14700 14699 un
16605 14699 14701 1
16606 14700 14734 1
16607 14702 14701 1
16608 14701 14737 2
16609 14703 14702 un
16610 14702 14708 un
16611 14704 14703 1
16612 14703 14705 1
16613 14704 14736 2
16614 14706 14705 1
16615 14705 14751 1
16616 14705 14752 1
16617 14707 14706 1
16618 14706 14753 1
16619 14706 14754 1
16620 14708 14707 un
16621 14707 14712 un
16622 14708 14709 un
16623 14710 14709 un
16624 14711 14710 un
16625 14710 14719 un
16626 14712 14711 un
16627 14711 14716 1
16628 14712 14713 1
16629 14714 14713 1
16630 14713 14755 1
16631 14713 14756 1
16632 14715 14714 1
16633 14714 14757 1
16634 14714 14758 1
16635 14716 14715 1
16636 14715 14759 1
16637 14715 14760 1
16638 14716 14717 1
16639 14716 14761 1
16640 14718 14717 1
16641 14717 14762 1
16642 14717 14763 1
16643 14719 14718 un
16644 14718 14723 un
16645 14719 14720 un
16646 14721 14720 un
16647 14720 14764 1
16648 14722 14721 un
16649 14721 14765 1
16650 14723 14722 un
16651 14722 14739 1
16652 14723 14738 1
16653 14724 14725 1
16654 14724 14766 1
16655 14724 14767 1
16656 14725 14768 1
16657 14725 14769 1
16658 14725 14770 1
16659 14726 14771 1
16660 14726 14772 1
16661 14726 14773 1
16662 14727 14774 1
16663 14727 14775 1
16664 14727 14776 1
16665 14728 14777 1
16666 14728 14778 1
16667 14728 14779 1
16668 14729 14780 1
16669 14729 14781 1
16670 14729 14782 1
16671 14730 14783 1
16672 14730 14784 1
16673 14730 14785 1
16674 14731 14786 1
16675 14732 14787 1
16676 14732 14788 1
16677 14732 14789 1
16678 14733 14790 1
16679 14733 14791 1
16680 14733 14792 1
16681 14734 14793 1
16682 14735 14794 1
16683 14738 14795 1
16684 14738 14796 1
16685 14738 14797 1
16686 14739 14798 1
16687 14739 14799 1
16688 14739 14800 1
16689 14801 14802 un
16690 14801 14806 un
16691 14801 14856 1
16692 14803 14802 un
16693 14802 14858 1
16694 14804 14803 un
16695 14803 14810 1
16696 14805 14804 un
16697 14804 14807 1
16698 14806 14805 un
16699 14805 14857 1
16700 14806 14854 1
16701 14808 14807 1
16702 14807 14870 1
16703 14807 14871 1
16704 14809 14808 un
16705 14808 14814 un
16706 14810 14809 1
16707 14809 14811 un
16708 14810 14872 1
16709 14810 14873 1
16710 14812 14811 un
16711 14811 14859 1
16712 14813 14812 un
16713 14812 14860 1
16714 14814 14813 un
16715 14813 14818 un
16716 14814 14815 un
16717 14816 14815 un
16718 14815 14874 1
16719 14817 14816 un
16720 14816 14822 un
16721 14818 14817 un
16722 14817 14819 1
16723 14818 14861 1
16724 14820 14819 1
16725 14819 14826 1
16726 14821 14820 1
16727 14820 14823 1
16728 14822 14821 un
16729 14821 14830 un
16730 14822 14827 un
16731 14824 14823 1
16732 14823 14875 1
16733 14823 14876 1
16734 14825 14824 un
16735 14824 14863 1
16736 14824 14877 1
16737 14826 14825 1
16738 14825 14862 1
16739 14825 14878 1
16740 14826 14879 1
16741 14826 14880 1
16742 14828 14827 un
16743 14827 14865 1
16744 14829 14828 un
16745 14828 14834 1
16746 14830 14829 un
16747 14829 14831 1
16748 14830 14864 1
16749 14832 14831 1
16750 14831 14867 2
16751 14833 14832 un
16752 14832 14838 un
16753 14834 14833 1
16754 14833 14835 1
16755 14834 14866 2
16756 14836 14835 1
16757 14835 14881 1
16758 14835 14882 1
16759 14837 14836 1
16760 14836 14883 1
16761 14836 14884 1
16762 14838 14837 un
16763 14837 14842 un
16764 14838 14839 un
16765 14840 14839 un
16766 14841 14840 un
16767 14840 14849 un
16768 14842 14841 un
16769 14841 14846 1
16770 14842 14843 1
16771 14844 14843 1
16772 14843 14885 1
16773 14843 14886 1
16774 14845 14844 1
16775 14844 14887 1
16776 14844 14888 1
16777 14846 14845 1
16778 14845 14889 1
16779 14845 14890 1
16780 14846 14847 1
16781 14846 14891 1
16782 14848 14847 1
16783 14847 14892 1
16784 14847 14893 1
16785 14849 14848 un
16786 14848 14853 un
16787 14849 14850 un
16788 14851 14850 un
16789 14850 14894 1
16790 14852 14851 un
16791 14851 14895 1
16792 14853 14852 un
16793 14852 14869 1
16794 14853 14868 1
16795 14854 14855 1
16796 14854 14896 1
16797 14854 14897 1
16798 14855 14898 1
16799 14855 14899 1
16800 14855 14900 1
16801 14856 14901 1
16802 14856 14902 1
16803 14856 14903 1
16804 14857 14904 1
16805 14857 14905 1
16806 14857 14906 1
16807 14858 14907 1
16808 14858 14908 1
16809 14858 14909 1
16810 14859 14910 1
16811 14859 14911 1
16812 14859 14912 1
16813 14860 14913 1
16814 14860 14914 1
16815 14860 14915 1
16816 14861 14916 1
16817 14862 14917 1
16818 14862 14918 1
16819 14862 14919 1
16820 14863 14920 1
16821 14863 14921 1
16822 14863 14922 1
16823 14864 14923 1
16824 14865 14924 1
16825 14868 14925 1
16826 14868 14926 1
16827 14868 14927 1
16828 14869 14928 1
16829 14869 14929 1
16830 14869 14930 1
16831 14931 14932 un
16832 14931 14936 un
16833 14931 14986 1
16834 14933 14932 un
16835 14932 14988 1
16836 14934 14933 un
16837 14933 14940 1
16838 14935 14934 un
16839 14934 14937 1
16840 14936 14935 un
16841 14935 14987 1
16842 14936 14984 1
16843 14938 14937 1
16844 14937 15000 1
16845 14937 15001 1
16846 14939 14938 un
16847 14938 14944 un
16848 14940 14939 1
16849 14939 14941 un
16850 14940 15002 1
16851 14940 15003 1
16852 14942 14941 un
16853 14941 14989 1
16854 14943 14942 un
16855 14942 14990 1
16856 14944 14943 un
16857 14943 14948 un
16858 14944 14945 un
16859 14946 14945 un
16860 14945 15004 1
16861 14947 14946 un
16862 14946 14952 un
16863 14948 14947 un
16864 14947 14949 1
16865 14948 14991 1
16866 14950 14949 1
16867 14949 14956 1
16868 14951 14950 1
16869 14950 14953 1
16870 14952 14951 un
16871 14951 14960 un
16872 14952 14957 un
16873 14954 14953 1
16874 14953 15005 1
16875 14953 15006 1
16876 14955 14954 un
16877 14954 14993 1
16878 14954 15007 1
16879 14956 14955 1
16880 14955 14992 1
16881 14955 15008 1
16882 14956 15009 1
16883 14956 15010 1
16884 14958 14957 un
16885 14957 14995 1
16886 14959 14958 un
16887 14958 14964 1
16888 14960 14959 un
16889 14959 14961 1
16890 14960 14994 1
16891 14962 14961 1
16892 14961 14997 2
16893 14963 14962 un
16894 14962 14968 un
16895 14964 14963 1
16896 14963 14965 1
16897 14964 14996 2
16898 14966 14965 1
16899 14965 15011 1
16900 14965 15012 1
16901 14967 14966 1
16902 14966 15013 1
16903 14966 15014 1
16904 14968 14967 un
16905 14967 14972 un
16906 14968 14969 un
16907 14970 14969 un
16908 14971 14970 un
16909 14970 14979 un
16910 14972 14971 un
16911 14971 14976 1
16912 14972 14973 1
16913 14974 14973 1
16914 14973 15015 1
16915 14973 15016 1
16916 14975 14974 1
16917 14974 15017 1
16918 14974 15018 1
16919 14976 14975 1
16920 14975 15019 1
16921 14975 15020 1
16922 14976 14977 1
16923 14976 15021 1
16924 14978 14977 1
16925 14977 15022 1
16926 14977 15023 1
16927 14979 14978 un
16928 14978 14983 un
16929 14979 14980 un
16930 14981 14980 un
16931 14980 15024 1
16932 14982 14981 un
16933 14981 15025 1
16934 14983 14982 un
16935 14982 14999 1
16936 14983 14998 1
16937 14984 14985 1
16938 14984 15026 1
16939 14984 15027 1
16940 14985 15028 1
16941 14985 15029 1
16942 14985 15030 1
16943 14986 15031 1
16944 14986 15032 1
16945 14986 15033 1
16946 14987 15034 1
16947 14987 15035 1
16948 14987 15036 1
16949 14988 15037 1
16950 14988 15038 1
16951 14988 15039 1
16952 14989 15040 1
16953 14989 15041 1
16954 14989 15042 1
16955 14990 15043 1
16956 14990 15044 1
16957 14990 15045 1
16958 14991 15046 1
16959 14992 15047 1
16960 14992 15048 1
16961 14992 15049 1
16962 14993 15050 1
16963 14993 15051 1
16964 14993 15052 1
16965 14994 15053 1
16966 14995 15054 1
16967 14998 15055 1
16968 14998 15056 1
16969 14998 15057 1
16970 14999 15058 1
16971 14999 15059 1
16972 14999 15060 1
16973 15061 15062 un
16974 15061 15066 un
16975 15061 15116 1
16976 15063 15062 un
16977 15062 15118 1
16978 15064 15063 un
16979 15063 15070 1
16980 15065 15064 un
16981 15064 15067 1
16982 15066 15065 un
16983 15065 15117 1
16984 15066 15114 1
16985 15068 15067 1
16986 15067 15130 1
16987 15067 15131 1
16988 15069 15068 un
16989 15068 15074 un
16990 15070 15069 1
16991 15069 15071 un
16992 15070 15132 1
16993 15070 15133 1
16994 15072 15071 un
16995 15071 15119 1
16996 15073 15072 un
16997 15072 15120 1
16998 15074 15073 un
16999 15073 15078 un
17000 15074 15075 un
17001 15076 15075 un
17002 15075 15134 1
17003 15077 15076 un
17004 15076 15082 un
17005 15078 15077 un
17006 15077 15079 1
17007 15078 15121 1
17008 15080 15079 1
17009 15079 15086 1
17010 15081 15080 1
17011 15080 15083 1
17012 15082 15081 un
17013 15081 15090 un
17014 15082 15087 un
17015 15084 15083 1
17016 15083 15135 1
17017 15083 15136 1
17018 15085 15084 un
17019 15084 15123 1
17020 15084 15137 1
17021 15086 15085 1
17022 15085 15122 1
17023 15085 15138 1
17024 15086 15139 1
17025 15086 15140 1
17026 15088 15087 un
17027 15087 15125 1
17028 15089 15088 un
17029 15088 15094 1
17030 15090 15089 un
17031 15089 15091 1
17032 15090 15124 1
17033 15092 15091 1
17034 15091 15127 2
17035 15093 15092 un
17036 15092 15098 un
17037 15094 15093 1
17038 15093 15095 1
17039 15094 15126 2
17040 15096 15095 1
17041 15095 15141 1
17042 15095 15142 1
17043 15097 15096 1
17044 15096 15143 1
17045 15096 15144 1
17046 15098 15097 un
17047 15097 15102 un
17048 15098 15099 un
17049 15100 15099 un
17050 15101 15100 un
17051 15100 15109 un
17052 15102 15101 un
17053 15101 15106 1
17054 15102 15103 1
17055 15104 15103 1
17056 15103 15145 1
17057 15103 15146 1
17058 15105 15104 1
17059 15104 15147 1
17060 15104 15148 1
17061 15106 15105 1
17062 15105 15149 1
17063 15105 15150 1
17064 15106 15107 1
17065 15106 15151 1
17066 15108 15107 1
17067 15107 15152 1
17068 15107 15153 1
17069 15109 15108 un
17070 15108 15113 un
17071 15109 15110 un
17072 15111 15110 un
17073 15110 15154 1
17074 15112 15111 un
17075 15111 15155 1
17076 15113 15112 un
17077 15112 15129 1
17078 15113 15128 1
17079 15114 15115 1
17080 15114 15156 1
17081 15114 15157 1
17082 15115 15158 1
17083 15115 15159 1
17084 15115 15160 1
17085 15116 15161 1
17086 15116 15162 1
17087 15116 15163 1
17088 15117 15164 1
17089 15117 15165 1
17090 15117 15166 1
17091 15118 15167 1
17092 15118 15168 1
17093 15118 15169 1
17094 15119 15170 1
17095 15119 15171 1
17096 15119 15172 1
17097 15120 15173 1
17098 15120 15174 1
17099 15120 15175 1
17100 15121 15176 1
17101 15122 15177 1
17102 15122 15178 1
17103 15122 15179 1
17104 15123 15180 1
17105 15123 15181 1
17106 15123 15182 1
17107 15124 15183 1
17108 15125 15184 1
17109 15128 15185 1
17110 15128 15186 1
17111 15128 15187 1
17112 15129 15188 1
17113 15129 15189 1
17114 15129 15190 1
17115 15191 15192 un
17116 15191 15196 un
17117 15191 15246 1
17118 15193 15192 un
17119 15192 15248 1
17120 15194 15193 un
17121 15193 15200 1
17122 15195 15194 un
17123 15194 15197 1
17124 15196 15195 un
17125 15195 15247 1
17126 15196 15244 1
17127 15198 15197 1
17128 15197 15260 1
17129 15197 15261 1
17130 15199 15198 un
17131 15198 15204 un
17132 15200 15199 1
17133 15199 15201 un
17134 15200 15262 1
17135 15200 15263 1
17136 15202 15201 un
17137 15201 15249 1
17138 15203 15202 un
17139 15202 15250 1
17140 15204 15203 un
17141 15203 15208 un
17142 15204 15205 un
17143 15206 15205 un
17144 15205 15264 1
17145 15207 15206 un
17146 15206 15212 un
17147 15208 15207 un
17148 15207 15209 1
17149 15208 15251 1
17150 15210 15209 1
17151 15209 15216 1
17152 15211 15210 1
17153 15210 15213 1
17154 15212 15211 un
17155 15211 15220 un
17156 15212 15217 un
17157 15214 15213 1
17158 15213 15265 1
17159 15213 15266 1
17160 15215 15214 un
17161 15214 15253 1
17162 15214 15267 1
17163 15216 15215 1
17164 15215 15252 1
17165 15215 15268 1
17166 15216 15269 1
17167 15216 15270 1
17168 15218 15217 un
17169 15217 15255 1
17170 15219 15218 un
17171 15218 15224 1
17172 15220 15219 un
17173 15219 15221 1
17174 15220 15254 1
17175 15222 15221 1
17176 15221 15257 2
17177 15223 15222 un
17178 15222 15228 un
17179 15224 15223 1
17180 15223 15225 1
17181 15224 15256 2
17182 15226 15225 1
17183 15225 15271 1
17184 15225 15272 1
17185 15227 15226 1
17186 15226 15273 1
17187 15226 15274 1
17188 15228 15227 un
17189 15227 15232 un
17190 15228 15229 un
17191 15230 15229 un
17192 15231 15230 un
17193 15230 15239 un
17194 15232 15231 un
17195 15231 15236 1
17196 15232 15233 1
17197 15234 15233 1
17198 15233 15275 1
17199 15233 15276 1
17200 15235 15234 1
17201 15234 15277 1
17202 15234 15278 1
17203 15236 15235 1
17204 15235 15279 1
17205 15235 15280 1
17206 15236 15237 1
17207 15236 15281 1
17208 15238 15237 1
17209 15237 15282 1
17210 15237 15283 1
17211 15239 15238 un
17212 15238 15243 un
17213 15239 15240 un
17214 15241 15240 un
17215 15240 15284 1
17216 15242 15241 un
17217 15241 15285 1
17218 15243 15242 un
17219 15242 15259 1
17220 15243 15258 1
17221 15244 15245 1
17222 15244 15286 1
17223 15244 15287 1
17224 15245 15288 1
17225 15245 15289 1
17226 15245 15290 1
17227 15246 15291 1
17228 15246 15292 1
17229 15246 15293 1
17230 15247 15294 1
17231 15247 15295 1
17232 15247 15296 1
17233 15248 15297 1
17234 15248 15298 1
17235 15248 15299 1
17236 15249 15300 1
17237 15249 15301 1
17238 15249 15302 1
17239 15250 15303 1
17240 15250 15304 1
17241 15250 15305 1
17242 15251 15306 1
17243 15252 15307 1
17244 15252 15308 1
17245 15252 15309 1
17246 15253 15310 1
17247 15253 15311 1
17248 15253 15312 1
17249 15254 15313 1
17250 15255 15314 1
17251 15258 15315 1
17252 15258 15316 1
17253 15258 15317 1
17254 15259 15318 1
17255 15259 15319 1
17256 15259 15320 1
17257 15321 15322 un
17258 15321 15326 un
17259 15321 15376 1
17260 15323 15322 un
17261 15322 15378 1
17262 15324 15323 un
17263 15323 15330 1
17264 15325 15324 un
17265 15324 15327 1
17266 15326 15325 un
17267 15325 15377 1
17268 15326 15374 1
17269 15328 15327 1
17270 15327 15390 1
17271 15327 15391 1
17272 15329 15328 un
17273 15328 15334 un
17274 15330 15329 1
17275 15329 15331 un
17276 15330 15392 1
17277 15330 15393 1
17278 15332 15331 un
17279 15331 15379 1
17280 15333 15332 un
17281 15332 15380 1
17282 15334 15333 un
17283 15333 15338 un
17284 15334 15335 un
17285 15336 15335 un
17286 15335 15394 1
17287 15337 15336 un
17288 15336 15342 un
17289 15338 15337 un
17290 15337 15339 1
17291 15338 15381 1
17292 15340 15339 1
17293 15339 15346 1
17294 15341 15340 1
17295 15340 15343 1
17296 15342 15341 un
17297 15341 15350 un
17298 15342 15347 un
17299 15344 15343 1
17300 15343 15395 1
17301 15343 15396 1
17302 15345 15344 un
17303 15344 15383 1
17304 15344 15397 1
17305 15346 15345 1
17306 15345 15382 1
17307 15345 15398 1
17308 15346 15399 1
17309 15346 15400 1
17310 15348 15347 un
17311 15347 15385 1
17312 15349 15348 un
17313 15348 15354 1
17314 15350 15349 un
17315 15349 15351 1
17316 15350 15384 1
17317 15352 15351 1
17318 15351 15387 2
17319 15353 15352 un
17320 15352 15358 un
17321 15354 15353 1
17322 15353 15355 1
17323 15354 15386 2
17324 15356 15355 1
17325 15355 15401 1
17326 15355 15402 1
17327 15357 15356 1
17328 15356 15403 1
17329 15356 15404 1
17330 15358 15357 un
17331 15357 15362 un
17332 15358 15359 un
17333 15360 15359 un
17334 15361 15360 un
17335 15360 15369 un
17336 15362 15361 un
17337 15361 15366 1
17338 15362 15363 1
17339 15364 15363 1
17340 15363 15405 1
17341 15363 15406 1
17342 15365 15364 1
17343 15364 15407 1
17344 15364 15408 1
17345 15366 15365 1
17346 15365 15409 1
17347 15365 15410 1
17348 15366 15367 1
17349 15366 15411 1
17350 15368 15367 1
17351 15367 15412 1
17352 15367 15413 1
17353 15369 15368 un
17354 15368 15373 un
17355 15369 15370 un
17356 15371 15370 un
17357 15370 15414 1
17358 15372 15371 un
17359 15371 15415 1
17360 15373 15372 un
17361 15372 15389 1
17362 15373 15388 1
17363 15374 15375 1
17364 15374 15416 1
17365 15374 15417 1
17366 15375 15418 1
17367 15375 15419 1
17368 15375 15420 1
17369 15376 15421 1
17370 15376 15422 1
17371 15376 15423 1
17372 15377 15424 1
17373 15377 15425 1
17374 15377 15426 1
17375 15378 15427 1
17376 15378 15428 1
17377 15378 15429 1
17378 15379 15430 1
17379 15379 15431 1
17380 15379 15432 1
17381 15380 15433 1
17382 15380 15434 1
17383 15380 15435 1
17384 15381 15436 1
17385 15382 15437 1
17386 15382 15438 1
17387 15382 15439 1
17388 15383 15440 1
17389 15383 15441 1
17390 15383 15442 1
17391 15384 15443 1
17392 15385 15444 1
17393 15388 15445 1
17394 15388 15446 1
17395 15388 15447 1
17396 15389 15448 1
17397 15389 15449 1
17398 15389 15450 1
17399 15451 15452 un
17400 15451 15456 un
17401 15451 15506 1
17402 15453 15452 un
17403 15452 15508 1
17404 15454 15453 un
17405 15453 15460 1
17406 15455 15454 un
17407 15454 15457 1
17408 15456 15455 un
17409 15455 15507 1
17410 15456 15504 1
17411 15458 15457 1
17412 15457 15520 1
17413 15457 15521 1
17414 15459 15458 un
17415 15458 15464 un
17416 15460 15459 1
17417 15459 15461 un
17418 15460 15522 1
17419 15460 15523 1
17420 15462 15461 un
17421 15461 15509 1
17422 15463 15462 un
17423 15462 15510 1
17424 15464 15463 un
17425 15463 15468 un
17426 15464 15465 un
17427 15466 15465 un
17428 15465 15524 1
17429 15467 15466 un
17430 15466 15472 un
17431 15468 15467 un
17432 15467 15469 1
17433 15468 15511 1
17434 15470 15469 1
17435 15469 15476 1
17436 15471 15470 1
17437 15470 15473 1
17438 15472 15471 un
17439 15471 15480 un
17440 15472 15477 un
17441 15474 15473 1
17442 15473 15525 1
17443 15473 15526 1
17444 15475 15474 un
17445 15474 15513 1
17446 15474 15527 1
17447 15476 15475 1
17448 15475 15512 1
17449 15475 15528 1
17450 15476 15529 1
17451 15476 15530 1
17452 15478 15477 un
17453 15477 15515 1
17454 15479 15478 un
17455 15478 15484 1
17456 15480 15479 un
17457 15479 15481 1
17458 15480 15514 1
17459 15482 15481 1
17460 15481 15517 2
17461 15483 15482 un
17462 15482 15488 un
17463 15484 15483 1
17464 15483 15485 1
17465 15484 15516 2
17466 15486 15485 1
17467 15485 15531 1
17468 15485 15532 1
17469 15487 15486 1
17470 15486 15533 1
17471 15486 15534 1
17472 15488 15487 un
17473 15487 15492 un
17474 15488 15489 un
17475 15490 15489 un
17476 15491 15490 un
17477 15490 15499 un
17478 15492 15491 un
17479 15491 15496 1
17480 15492 15493 1
17481 15494 15493 1
17482 15493 15535 1
17483 15493 15536 1
17484 15495 15494 1
17485 15494 15537 1
17486 15494 15538 1
17487 15496 15495 1
17488 15495 15539 1
17489 15495 15540 1
17490 15496 15497 1
17491 15496 15541 1
17492 15498 15497 1
17493 15497 15542 1
17494 15497 15543 1
17495 15499 15498 un
17496 15498 15503 un
17497 15499 15500 un
17498 15501 15500 un
17499 15500 15544 1
17500 15502 15501 un
17501 15501 15545 1
17502 15503 15502 un
17503 15502 15519 1
17504 15503 15518 1
17505 15504 15505 1
17506 15504 15546 1
17507 15504 15547 1
17508 15505 15548 1
17509 15505 15549 1
17510 15505 15550 1
17511 15506 15551 1
17512 15506 15552 1
17513 15506 15553 1
17514 15507 15554 1
17515 15507 15555 1
17516 15507 15556 1
17517 15508 15557 1
17518 15508 15558 1
17519 15508 15559 1
17520 15509 15560 1
17521 15509 15561 1
17522 15509 15562 1
17523 15510 15563 1
17524 15510 15564 1
17525 15510 15565 1
17526 15511 15566 1
17527 15512 15567 1
17528 15512 15568 1
17529 15512 15569 1
17530 15513 15570 1
17531 15513 15571 1
17532 15513 15572 1
17533 15514 15573 1
17534 15515 15574 1
17535 15518 15575 1
17536 15518 15576 1
17537 15518 15577 1
17538 15519 15578 1
17539 15519 15579 1
17540 15519 15580 1
17541 15581 15582 un
17542 15581 15586 un
17543 15581 15636 1
17544 15583 15582 un
17545 15582 15638 1
17546 15584 15583 un
17547 15583 15590 1
17548 15585 15584 un
17549 15584 15587 1
17550 15586 15585 un
17551 15585 15637 1
17552 15586 15634 1
17553 15588 15587 1
17554 15587 15650 1
17555 15587 15651 1
17556 15589 15588 un
17557 15588 15594 un
17558 15590 15589 1
17559 15589 15591 un
17560 15590 15652 1
17561 15590 15653 1
17562 15592 15591 un
17563 15591 15639 1
17564 15593 15592 un
17565 15592 15640 1
17566 15594 15593 un
17567 15593 15598 un
17568 15594 15595 un
17569 15596 15595 un
17570 15595 15654 1
17571 15597 15596 un
17572 15596 15602 un
17573 15598 15597 un
17574 15597 15599 1
17575 15598 15641 1
17576 15600 15599 1
17577 15599 15606 1
17578 15601 15600 1
17579 15600 15603 1
17580 15602 15601 un
17581 15601 15610 un
17582 15602 15607 un
17583 15604 15603 1
17584 15603 15655 1
17585 15603 15656 1
17586 15605 15604 un
17587 15604 15643 1
17588 15604 15657 1
17589 15606 15605 1
17590 15605 15642 1
17591 15605 15658 1
17592 15606 15659 1
17593 15606 15660 1
17594 15608 15607 un
17595 15607 15645 1
17596 15609 15608 un
17597 15608 15614 1
17598 15610 15609 un
17599 15609 15611 1
17600 15610 15644 1
17601 15612 15611 1
17602 15611 15647 2
17603 15613 15612 un
17604 15612 15618 un
17605 15614 15613 1
17606 15613 15615 1
17607 15614 15646 2
17608 15616 15615 1
17609 15615 15661 1
17610 15615 15662 1
17611 15617 15616 1
17612 15616 15663 1
17613 15616 15664 1
17614 15618 15617 un
17615 15617 15622 un
17616 15618 15619 un
17617 15620 15619 un
17618 15621 15620 un
17619 15620 15629 un
17620 15622 15621 un
17621 15621 15626 1
17622 15622 15623 1
17623 15624 15623 1
17624 15623 15665 1
17625 15623 15666 1
17626 15625 15624 1
17627 15624 15667 1
17628 15624 15668 1
17629 15626 15625 1
17630 15625 15669 1
17631 15625 15670 1
17632 15626 15627 1
17633 15626 15671 1
17634 15628 15627 1
17635 15627 15672 1
17636 15627 15673 1
17637 15629 15628 un
17638 15628 15633 un
17639 15629 15630 un
17640 15631 15630 un
17641 15630 15674 1
17642 15632 15631 un
17643 15631 15675 1
17644 15633 15632 un
17645 15632 15649 1
17646 15633 15648 1
17647 15634 15635 1
17648 15634 15676 1
17649 15634 15677 1
17650 15635 15678 1
17651 15635 15679 1
17652 15635 15680 1
17653 15636 15681 1
17654 15636 15682 1
17655 15636 15683 1
17656 15637 15684 1
17657 15637 15685 1
17658 15637 15686 1
17659 15638 15687 1
17660 15638 15688 1
17661 15638 15689 1
17662 15639 15690 1
17663 15639 15691 1
17664 15639 15692 1
17665 15640 15693 1
17666 15640 15694 1
17667 15640 15695 1
17668 15641 15696 1
17669 15642 15697 1
17670 15642 15698 1
17671 15642 15699 1
17672 15643 15700 1
17673 15643 15701 1
17674 15643 15702 1
17675 15644 15703 1
17676 15645 15704 1
17677 15648 15705 1
17678 15648 15706 1
17679 15648 15707 1
17680 15649 15708 1
17681 15649 15709 1
17682 15649 15710 1
17683 15711 15712 un
17684 15711 15716 un
17685 15711 15766 1
17686 15713 15712 un
17687 15712 15768 1
17688 15714 15713 un
17689 15713 15720 1
17690 15715 15714 un
17691 15714 15717 1
17692 15716 15715 un
17693 15715 15767 1
17694 15716 15764 1
17695 15718 15717 1
17696 15717 15780 1
17697 15717 15781 1
17698 15719 15718 un
17699 15718 15724 un
17700 15720 15719 1
17701 15719 15721 un
17702 15720 15782 1
17703 15720 15783 1
17704 15722 15721 un
17705 15721 15769 1
17706 15723 15722 un
17707 15722 15770 1
17708 15724 15723 un
17709 15723 15728 un
17710 15724 15725 un
17711 15726 15725 un
17712 15725 15784 1
17713 15727 15726 un
17714 15726 15732 un
17715 15728 15727 un
17716 15727 15729 1
17717 15728 15771 1
17718 15730 15729 1
17719 15729 15736 1
17720 15731 15730 1
17721 15730 15733 1
17722 15732 15731 un
17723 15731 15740 un
17724 15732 15737 un
17725 15734 15733 1
17726 15733 15785 1
17727 15733 15786 1
17728 15735 15734 un
17729 15734 15773 1
17730 15734 15787 1
17731 15736 15735 1
17732 15735 15772 1
17733 15735 15788 1
17734 15736 15789 1
17735 15736 15790 1
17736 15738 15737 un
17737 15737 15775 1
17738 15739 15738 un
17739 15738 15744 1
17740 15740 15739 un
17741 15739 15741 1
17742 15740 15774 1
17743 15742 15741 1
17744 15741 15777 2
17745 15743 15742 un
17746 15742 15748 un
17747 15744 15743 1
17748 15743 15745 1
17749 15744 15776 2
17750 15746 15745 1
17751 15745 15791 1
17752 15745 15792 1
17753 15747 15746 1
17754 15746 15793 1
17755 15746 15794 1
17756 15748 15747 un
17757 15747 15752 un
17758 15748 15749 un
17759 15750 15749 un
17760 15751 15750 un
17761 15750 15759 un
17762 15752 15751 un
17763 15751 15756 1
17764 15752 15753 1
17765 15754 15753 1
17766 15753 15795 1
17767 15753 15796 1
17768 15755 15754 1
17769 15754 15797 1
17770 15754 15798 1
17771 15756 15755 1
17772 15755 15799 1
17773 15755 15800 1
17774 15756 15757 1
17775 15756 15801 1
17776 15758 15757 1
17777 15757 15802 1
17778 15757 15803 1
17779 15759 15758 un
17780 15758 15763 un
17781 15759 15760 un
17782 15761 15760 un
17783 15760 15804 1
17784 15762 15761 un
17785 15761 15805 1
17786 15763 15762 un
17787 15762 15779 1
17788 15763 15778 1
17789 15764 15765 1
17790 15764 15806 1
17791 15764 15807 1
17792 15765 15808 1
17793 15765 15809 1
17794 15765 15810 1
17795 15766 15811 1
17796 15766 15812 1
17797 15766 15813 1
17798 15767 15814 1
17799 15767 15815 1
17800 15767 15816 1
17801 15768 15817 1
17802 15768 15818 1
17803 15768 15819 1
17804 15769 15820 1
17805 15769 15821 1
17806 15769 15822 1
17807 15770 15823 1
17808 15770 15824 1
17809 15770 15825 1
17810 15771 15826 1
17811 15772 15827 1
17812 15772 15828 1
17813 15772 15829 1
17814 15773 15830 1
17815 15773 15831 1
17816 15773 15832 1
17817 15774 15833 1
17818 15775 15834 1
17819 15778 15835 1
17820 15778 15836 1
17821 15778 15837 1
17822 15779 15838 1
17823 15779 15839 1
17824 15779 15840 1
17825 15841 15842 un
17826 15841 15846 un
17827 15841 15896 1
17828 15843 15842 un
17829 15842 15898 1
17830 15844 15843 un
17831 15843 15850 1
17832 15845 15844 un
17833 15844 15847 1
17834 15846 15845 un
17835 15845 15897 1
17836 15846 15894 1
17837 15848 15847 1
17838 15847 15910 1
17839 15847 15911 1
17840 15849 15848 un
17841 15848 15854 un
17842 15850 15849 1
17843 15849 15851 un
17844 15850 15912 1
17845 15850 15913 1
17846 15852 15851 un
17847 15851 15899 1
17848 15853 15852 un
17849 15852 15900 1
17850 15854 15853 un
17851 15853 15858 un
17852 15854 15855 un
17853 15856 15855 un
17854 15855 15914 1
17855 15857 15856 un
17856 15856 15862 un
17857 15858 15857 un
17858 15857 15859 1
17859 15858 15901 1
17860 15860 15859 1
17861 15859 15866 1
17862 15861 15860 1
17863 15860 15863 1
17864 15862 15861 un
17865 15861 15870 un
17866 15862 15867 un
17867 15864 15863 1
17868 15863 15915 1
17869 15863 15916 1
17870 15865 15864 un
17871 15864 15903 1
17872 15864 15917 1
17873 15866 15865 1
17874 15865 15902 1
17875 15865 15918 1
17876 15866 15919 1
17877 15866 15920 1
17878 15868 15867 un
17879 15867 15905 1
17880 15869 15868 un
17881 15868 15874 1
17882 15870 15869 un
17883 15869 15871 1
17884 15870 15904 1
17885 15872 15871 1
17886 15871 15907 2
17887 15873 15872 un
17888 15872 15878 un
17889 15874 15873 1
17890 15873 15875 1
17891 15874 15906 2
17892 15876 15875 1
17893 15875 15921 1
17894 15875 15922 1
17895 15877 15876 1
17896 15876 15923 1
17897 15876 15924 1
17898 15878 15877 un
17899 15877 15882 un
17900 15878 15879 un
17901 15880 15879 un
17902 15881 15880 un
17903 15880 15889 un
17904 15882 15881 un
17905 15881 15886 1
17906 15882 15883 1
17907 15884 15883 1
17908 15883 15925 1
17909 15883 15926 1
17910 15885 15884 1
17911 15884 15927 1
17912 15884 15928 1
17913 15886 15885 1
17914 15885 15929 1
17915 15885 15930 1
17916 15886 15887 1
17917 15886 15931 1
17918 15888 15887 1
17919 15887 15932 1
17920 15887 15933 1
17921 15889 15888 un
17922 15888 15893 un
17923 15889 15890 un
17924 15891 15890 un
17925 15890 15934 1
17926 15892 15891 un
17927 15891 15935 1
17928 15893 15892 un
17929 15892 15909 1
17930 15893 15908 1
17931 15894 15895 1
17932 15894 15936 1
17933 15894 15937 1
17934 15895 15938 1
17935 15895 15939 1
17936 15895 15940 1
17937 15896 15941 1
17938 15896 15942 1
17939 15896 15943 1
17940 15897 15944 1
17941 15897 15945 1
17942 15897 15946 1
17943 15898 15947 1
17944 15898 15948 1
17945 15898 15949 1
17946 15899 15950 1
17947 15899 15951 1
17948 15899 15952 1
17949 15900 15953 1
17950 15900 15954 1
17951 15900 15955 1
17952 15901 15956 1
17953 15902 15957 1
17954 15902 15958 1
17955 15902 15959 1
17956 15903 15960 1
17957 15903 15961 1
17958 15903 15962 1
17959 15904 15963 1
17960 15905 15964 1
17961 15908 15965 1
17962 15908 15966 1
17963 15908 15967 1
17964 15909 15968 1
17965 15909 15969 1
17966 15909 15970 1
17967 15971 15972 un
17968 15971 15976 un
17969 15971 16026 1
17970 15973 15972 un
17971 15972 16028 1
17972 15974 15973 un
17973 15973 15980 1
17974 15975 15974 un
17975 15974 15977 1
17976 15976 15975 un
17977 15975 16027 1
17978 15976 16024 1
17979 15978 15977 1
17980 15977 16040 1
17981 15977 16041 1
17982 15979 15978 un
17983 15978 15984 un
17984 15980 15979 1
17985 15979 15981 un
17986 15980 16042 1
17987 15980 16043 1
17988 15982 15981 un
17989 15981 16029 1
17990 15983 15982 un
17991 15982 16030 1
17992 15984 15983 un
17993 15983 15988 un
17994 15984 15985 un
17995 15986 15985 un
17996 15985 16044 1
17997 15987 15986 un
17998 15986 15992 un
17999 15988 15987 un
18000 15987 15989 1
18001 15988 16031 1
18002 15990 15989 1
18003 15989 15996 1
18004 15991 15990 1
18005 15990 15993 1
18006 15992 15991 un
18007 15991 16000 un
18008 15992 15997 un
18009 15994 15993 1
18010 15993 16045 1
18011 15993 16046 1
18012 15995 15994 un
18013 15994 16033 1
18014 15994 16047 1
18015 15996 15995 1
18016 15995 16032 1
18017 15995 16048 1
18018 15996 16049 1
18019 15996 16050 1
18020 15998 15997 un
18021 15997 16035 1
18022 15999 15998 un
18023 15998 16004 1
18024 16000 15999 un
18025 15999 16001 1
18026 16000 16034 1
18027 16002 16001 1
18028 16001 16037 2
18029 16003 16002 un
18030 16002 16008 un
18031 16004 16003 1
18032 16003 16005 1
18033 16004 16036 2
18034 16006 16005 1
18035 16005 16051 1
18036 16005 16052 1
18037 16007 16006 1
18038 16006 16053 1
18039 16006 16054 1
18040 16008 16007 un
18041 16007 16012 un
18042 16008 16009 un
18043 16010 16009 un
18044 16011 16010 un
18045 16010 16019 un
18046 16012 16011 un
18047 16011 16016 1
18048 16012 16013 1
18049 16014 16013 1
18050 16013 16055 1
18051 16013 16056 1
18052 16015 16014 1
18053 16014 16057 1
18054 16014 16058 1
18055 16016 16015 1
18056 16015 16059 1
18057 16015 16060 1
18058 16016 16017 1
18059 16016 16061 1
18060 16018 16017 1
18061 16017 16062 1
18062 16017 16063 1
18063 16019 16018 un
18064 16018 16023 un
18065 16019 16020 un
18066 16021 16020 un
18067 16020 16064 1
18068 16022 16021 un
18069 16021 16065 1
18070 16023 16022 un
18071 16022 16039 1
18072 16023 16038 1
18073 16024 16025 1
18074 16024 16066 1
18075 16024 16067 1
18076 16025 16068 1
18077 16025 16069 1
18078 16025 16070 1
18079 16026 16071 1
18080 16026 16072 1
18081 16026 16073 1
18082 16027 16074 1
18083 16027 16075 1
18084 16027 16076 1
18085 16028 16077 1
18086 16028 16078 1
18087 16028 16079 1
18088 16029 16080 1
18089 16029 16081 1
18090 16029 16082 1
18091 16030 16083 1
18092 16030 16084 1
18093 16030 16085 1
18094 16031 16086 1
18095 16032 16087 1
18096 16032 16088 1
18097 16032 16089 1
18098 16033 16090 1
18099 16033 16091 1
18100 16033 16092 1
18101 16034 16093 1
18102 16035 16094 1
18103 16038 16095 1
18104 16038 16096 1
18105 16038 16097 1
18106 16039 16098 1
18107 16039 16099 1
18108 16039 16100 1
18109 16101 16102 un
18110 16101 16106 un
18111 16101 16156 1
18112 16103 16102 un
18113 16102 16158 1
18114 16104 16103 un
18115 16103 16110 1
18116 16105 16104 un
18117 16104 16107 1
18118 16106 16105 un
18119 16105 16157 1
18120 16106 16154 1
18121 16108 16107 1
18122 16107 16170 1
18123 16107 16171 1
18124 16109 16108 un
18125 16108 16114 un
18126 16110 16109 1
18127 16109 16111 un
18128 16110 16172 1
18129 16110 16173 1
18130 16112 16111 un
18131 16111 16159 1
18132 16113 16112 un
18133 16112 16160 1
18134 16114 16113 un
18135 16113 16118 un
18136 16114 16115 un
18137 16116 16115 un
18138 16115 16174 1
18139 16117 16116 un
18140 16116 16122 un
18141 16118 16117 un
18142 16117 16119 1
18143 16118 16161 1
18144 16120 16119 1
18145 16119 16126 1
18146 16121 16120 1
18147 16120 16123 1
18148 16122 16121 un
18149 16121 16130 un
18150 16122 16127 un
18151 16124 16123 1
18152 16123 16175 1
18153 16123 16176 1
18154 16125 16124 un
18155 16124 16163 1
18156 16124 16177 1
18157 16126 16125 1
18158 16125 16162 1
18159 16125 16178 1
18160 16126 16179 1
18161 16126 16180 1
18162 16128 16127 un
18163 16127 16165 1
18164 16129 16128 un
18165 16128 16134 1
18166 16130 16129 un
18167 16129 16131 1
18168 16130 16164 1
18169 16132 16131 1
18170 16131 16167 2
18171 16133 16132 un
18172 16132 16138 un
18173 16134 16133 1
18174 16133 16135 1
18175 16134 16166 2
18176 16136 16135 1
18177 16135 16181 1
18178 16135 16182 1
18179 16137 16136 1
18180 16136 16183 1
18181 16136 16184 1
18182 16138 16137 un
18183 16137 16142 un
18184 16138 16139 un
18185 16140 16139 un
18186 16141 16140 un
18187 16140 16149 un
18188 16142 16141 un
18189 16141 16146 1
18190 16142 16143 1
18191 16144 16143 1
18192 16143 16185 1
18193 16143 16186 1
18194 16145 16144 1
18195 16144 16187 1
18196 16144 16188 1
18197 16146 16145 1
18198 16145 16189 1
18199 16145 16190 1
18200 16146 16147 1
18201 16146 16191 1
18202 16148 16147 1
18203 16147 16192 1
18204 16147 16193 1
18205 16149 16148 un
18206 16148 16153 un
18207 16149 16150 un
18208 16151 16150 un
18209 16150 16194 1
18210 16152 16151 un
18211 16151 16195 1
18212 16153 16152 un
18213 16152 16169 1
18214 16153 16168 1
18215 16154 16155 1
18216 16154 16196 1
18217 16154 16197 1
18218 16155 16198 1
18219 16155 16199 1
18220 16155 16200 1
18221 16156 16201 1
18222 16156 16202 1
18223 16156 16203 1
18224 16157 16204 1
18225 16157 16205 1
18226 16157 16206 1
18227 16158 16207 1
18228 16158 16208 1
18229 16158 16209 1
18230 16159 16210 1
18231 16159 16211 1
18232 16159 16212 1
18233 16160 16213 1
18234 16160 16214 1
18235 16160 16215 1
18236 16161 16216 1
18237 16162 16217 1
18238 16162 16218 1
18239 16162 16219 1
18240 16163 16220 1
18241 16163 16221 1
18242 16163 16222 1
18243 16164 16223 1
18244 16165 16224 1
18245 16168 16225 1
18246 16168 16226 1
18247 16168 16227 1
18248 16169 16228 1
18249 16169 16229 1
18250 16169 16230 1
18251 16231 16232 un
18252 16231 16236 un
18253 16231 16286 1
18254 16233 16232 un
18255 16232 16288 1
18256 16234 16233 un
18257 16233 16240 1
18258 16235 16234 un
18259 16234 16237 1
18260 16236 16235 un
18261 16235 16287 1
18262 16236 16284 1
18263 16238 16237 1
18264 16237 16300 1
18265 16237 16301 1
18266 16239 16238 un
18267 16238 16244 un
18268 16240 16239 1
18269 16239 16241 un
18270 16240 16302 1
18271 16240 16303 1
18272 16242 16241 un
18273 16241 16289 1
18274 16243 16242 un
18275 16242 16290 1
18276 16244 16243 un
18277 16243 16248 un
18278 16244 16245 un
18279 16246 16245 un
18280 16245 16304 1
18281 16247 16246 un
18282 16246 16252 un
18283 16248 16247 un
18284 16247 16249 1
18285 16248 16291 1
18286 16250 16249 1
18287 16249 16256 1
18288 16251 16250 1
18289 16250 16253 1
18290 16252 16251 un
18291 16251 16260 un
18292 16252 16257 un
18293 16254 16253 1
18294 16253 16305 1
18295 16253 16306 1
18296 16255 16254 un
18297 16254 16293 1
18298 16254 16307 1
18299 16256 16255 1
18300 16255 16292 1
18301 16255 16308 1
18302 16256 16309 1
18303 16256 16310 1
18304 16258 16257 un
18305 16257 16295 1
18306 16259 16258 un
18307 16258 16264 1
18308 16260 16259 un
18309 16259 16261 1
18310 16260 16294 1
18311 16262 16261 1
18312 16261 16297 2
18313 16263 16262 un
18314 16262 16268 un
18315 16264 16263 1
18316 16263 16265 1
18317 16264 16296 2
18318 16266 16265 1
18319 16265 16311 1
18320 16265 16312 1
18321 16267 16266 1
18322 16266 16313 1
18323 16266 16314 1
18324 16268 16267 un
18325 16267 16272 un
18326 16268 16269 un
18327 16270 16269 un
18328 16271 16270 un
18329 16270 16279 un
18330 16272 16271 un
18331 16271 16276 1
18332 16272 16273 1
18333 16274 16273 1
18334 16273 16315 1
18335 16273 16316 1
18336 16275 16274 1
18337 16274 16317 1
18338 16274 16318 1
18339 16276 16275 1
18340 16275 16319 1
18341 16275 16320 1
18342 16276 16277 1
18343 16276 16321 1
18344 16278 16277 1
18345 16277 16322 1
18346 16277 16323 1
18347 16279 16278 un
18348 16278 16283 un
18349 16279 16280 un
18350 16281 16280 un
18351 16280 16324 1
18352 16282 16281 un
18353 16281 16325 1
18354 16283 16282 un
18355 16282 16299 1
18356 16283 16298 1
18357 16284 16285 1
18358 16284 16326 1
18359 16284 16327 1
18360 16285 16328 1
18361 16285 16329 1
18362 16285 16330 1
18363 16286 16331 1
18364 16286 16332 1
18365 16286 16333 1
18366 16287 16334 1
18367 16287 16335 1
18368 16287 16336 1
18369 16288 16337 1
18370 16288 16338 1
18371 16288 16339 1
18372 16289 16340 1
18373 16289 16341 1
18374 16289 16342 1
18375 16290 16343 1
18376 16290 16344 1
18377 16290 16345 1
18378 16291 16346 1
18379 16292 16347 1
18380 16292 16348 1
18381 16292 16349 1
18382 16293 16350 1
18383 16293 16351 1
18384 16293 16352 1
18385 16294 16353 1
18386 16295 16354 1
18387 16298 16355 1
18388 16298 16356 1
18389 16298 16357 1
18390 16299 16358 1
18391 16299 16359 1
18392 16299 16360 1
18393 16361 16362 un
18394 16361 16366 un
18395 16361 16416 1
18396 16363 16362 un
18397 16362 16418 1
18398 16364 16363 un
18399 16363 16370 1
18400 16365 16364 un
18401 16364 16367 1
18402 16366 16365 un
18403 16365 16417 1
18404 16366 16414 1
18405 16368 16367 1
18406 16367 16430 1
18407 16367 16431 1
18408 16369 16368 un
18409 16368 16374 un
18410 16370 16369 1
18411 16369 16371 un
18412 16370 16432 1
18413 16370 16433 1
18414 16372 16371 un
18415 16371 16419 1
18416 16373 16372 un
18417 16372 16420 1
18418 16374 16373 un
18419 16373 16378 un
18420 16374 16375 un
18421 16376 16375 un
18422 16375 16434 1
18423 16377 16376 un
18424 16376 16382 un
18425 16378 16377 un
18426 16377 16379 1
18427 16378 16421 1
18428 16380 16379 1
18429 16379 16386 1
18430 16381 16380 1
18431 16380 16383 1
18432 16382 16381 un
18433 16381 16390 un
18434 16382 16387 un
18435 16384 16383 1
18436 16383 16435 1
18437 16383 16436 1
18438 16385 16384 un
18439 16384 16423 1
18440 16384 16437 1
18441 16386 16385 1
18442 16385 16422 1
18443 16385 16438 1
18444 16386 16439 1
18445 16386 16440 1
18446 16388 16387 un
18447 16387 16425 1
18448 16389 16388 un
18449 16388 16394 1
18450 16390 16389 un
18451 16389 16391 1
18452 16390 16424 1
18453 16392 16391 1
18454 16391 16427 2
18455 16393 16392 un
18456 16392 16398 un
18457 16394 16393 1
18458 16393 16395 1
18459 16394 16426 2
18460 16396 16395 1
18461 16395 16441 1
18462 16395 16442 1
18463 16397 16396 1
18464 16396 16443 1
18465 16396 16444 1
18466 16398 16397 un
18467 16397 16402 un
18468 16398 16399 un
18469 16400 16399 un
18470 16401 16400 un
18471 16400 16409 un
18472 16402 16401 un
18473 16401 16406 1
18474 16402 16403 1
18475 16404 16403 1
18476 16403 16445 1
18477 16403 16446 1
18478 16405 16404 1
18479 16404 16447 1
18480 16404 16448 1
18481 16406 16405 1
18482 16405 16449 1
18483 16405 16450 1
18484 16406 16407 1
18485 16406 16451 1
18486 16408 16407 1
18487 16407 16452 1
18488 16407 16453 1
18489 16409 16408 un
18490 16408 16413 un
18491 16409 16410 un
18492 16411 16410 un
18493 16410 16454 1
18494 16412 16411 un
18495 16411 16455 1
18496 16413 16412 un
18497 16412 16429 1
18498 16413 16428 1
18499 16414 16415 1
18500 16414 16456 1
18501 16414 16457 1
18502 16415 16458 1
18503 16415 16459 1
18504 16415 16460 1
18505 16416 16461 1
18506 16416 16462 1
18507 16416 16463 1
18508 16417 16464 1
18509 16417 16465 1
18510 16417 16466 1
18511 16418 16467 1
18512 16418 16468 1
18513 16418 16469 1
18514 16419 16470 1
18515 16419 16471 1
18516 16419 16472 1
18517 16420 16473 1
18518 16420 16474 1
18519 16420 16475 1
18520 16421 16476 1
18521 16422 16477 1
18522 16422 16478 1
18523 16422 16479 1
18524 16423 16480 1
18525 16423 16481 1
18526 16423 16482 1
18527 16424 16483 1
18528 16425 16484 1
18529 16428 16485 1
18530 16428 16486 1
18531 16428 16487 1
18532 16429 16488 1
18533 16429 16489 1
18534 16429 16490 1
18535 16491 16492 un
18536 16491 16496 un
18537 16491 16546 1
18538 16493 16492 un
18539 16492 16548 1
18540 16494 16493 un
18541 16493 16500 1
18542 16495 16494 un
18543 16494 16497 1
18544 16496 16495 un
18545 16495 16547 1
18546 16496 16544 1
18547 16498 16497 1
18548 16497 16560 1
18549 16497 16561 1
18550 16499 16498 un
18551 16498 16504 un
18552 16500 16499 1
18553 16499 16501 un
18554 16500 16562 1
18555 16500 16563 1
18556 16502 16501 un
18557 16501 16549 1
18558 16503 16502 un
18559 16502 16550 1
18560 16504 16503 un
18561 16503 16508 un
18562 16504 16505 un
18563 16506 16505 un
18564 16505 16564 1
18565 16507 16506 un
18566 16506 16512 un
18567 16508 16507 un
18568 16507 16509 1
18569 16508 16551 1
18570 16510 16509 1
18571 16509 16516 1
18572 16511 16510 1
18573 16510 16513 1
18574 16512 16511 un
18575 16511 16520 un
18576 16512 16517 un
18577 16514 16513 1
18578 16513 16565 1
18579 16513 16566 1
18580 16515 16514 un
18581 16514 16553 1
18582 16514 16567 1
18583 16516 16515 1
18584 16515 16552 1
18585 16515 16568 1
18586 16516 16569 1
18587 16516 16570 1
18588 16518 16517 un
18589 16517 16555 1
18590 16519 16518 un
18591 16518 16524 1
18592 16520 16519 un
18593 16519 16521 1
18594 16520 16554 1
18595 16522 16521 1
18596 16521 16557 2
18597 16523 16522 un
18598 16522 16528 un
18599 16524 16523 1
18600 16523 16525 1
18601 16524 16556 2
18602 16526 16525 1
18603 16525 16571 1
18604 16525 16572 1
18605 16527 16526 1
18606 16526 16573 1
18607 16526 16574 1
18608 16528 16527 un
18609 16527 16532 un
18610 16528 16529 un
18611 16530 16529 un
18612 16531 16530 un
18613 16530 16539 un
18614 16532 16531 un
18615 16531 16536 1
18616 16532 16533 1
18617 16534 16533 1
18618 16533 16575 1
18619 16533 16576 1
18620 16535 16534 1
18621 16534 16577 1
18622 16534 16578 1
18623 16536 16535 1
18624 16535 16579 1
18625 16535 16580 1
18626 16536 16537 1
18627 16536 16581 1
18628 16538 16537 1
18629 16537 16582 1
18630 16537 16583 1
18631 16539 16538 un
18632 16538 16543 un
18633 16539 16540 un
18634 16541 16540 un
18635 16540 16584 1
18636 16542 16541 un
18637 16541 16585 1
18638 16543 16542 un
18639 16542 16559 1
18640 16543 16558 1
18641 16544 16545 1
18642 16544 16586 1
18643 16544 16587 1
18644 16545 16588 1
18645 16545 16589 1
18646 16545 16590 1
18647 16546 16591 1
18648 16546 16592 1
18649 16546 16593 1
18650 16547 16594 1
18651 16547 16595 1
18652 16547 16596 1
18653 16548 16597 1
18654 16548 16598 1
18655 16548 16599 1
18656 16549 16600 1
18657 16549 16601 1
18658 16549 16602 1
18659 16550 16603 1
18660 16550 16604 1
18661 16550 16605 1
18662 16551 16606 1
18663 16552 16607 1
18664 16552 16608 1
18665 16552 16609 1
18666 16553 16610 1
18667 16553 16611 1
18668 16553 16612 1
18669 16554 16613 1
18670 16555 16614 1
18671 16558 16615 1
18672 16558 16616 1
18673 16558 16617 1
18674 16559 16618 1
18675 16559 16619 1
18676 16559 16620 1
18677 16621 16622 un
18678 16621 16626 un
18679 16621 16676 1
18680 16623 16622 un
18681 16622 16678 1
18682 16624 16623 un
18683 16623 16630 1
18684 16625 16624 un
18685 16624 16627 1
18686 16626 16625 un
18687 16625 16677 1
18688 16626 16674 1
18689 16628 16627 1
18690 16627 16690 1
18691 16627 16691 1
18692 16629 16628 un
18693 16628 16634 un
18694 16630 16629 1
18695 16629 16631 un
18696 16630 16692 1
18697 16630 16693 1
18698 16632 16631 un
18699 16631 16679 1
18700 16633 16632 un
18701 16632 16680 1
18702 16634 16633 un
18703 16633 16638 un
18704 16634 16635 un
18705 16636 16635 un
18706 16635 16694 1
18707 16637 16636 un
18708 16636 16642 un
18709 16638 16637 un
18710 16637 16639 1
18711 16638 16681 1
18712 16640 16639 1
18713 16639 16646 1
18714 16641 16640 1
18715 16640 16643 1
18716 16642 16641 un
18717 16641 16650 un
18718 16642 16647 un
18719 16644 16643 1
18720 16643 16695 1
18721 16643 16696 1
18722 16645 16644 un
18723 16644 16683 1
18724 16644 16697 1
18725 16646 16645 1
18726 16645 16682 1
18727 16645 16698 1
18728 16646 16699 1
18729 16646 16700 1
18730 16648 16647 un
18731 16647 16685 1
18732 16649 16648 un
18733 16648 16654 1
18734 16650 16649 un
18735 16649 16651 1
18736 16650 16684 1
18737 16652 16651 1
18738 16651 16687 2
18739 16653 16652 un
18740 16652 16658 un
18741 16654 16653 1
18742 16653 16655 1
18743 16654 16686 2
18744 16656 16655 1
18745 16655 16701 1
18746 16655 16702 1
18747 16657 16656 1
18748 16656 16703 1
18749 16656 16704 1
18750 16658 16657 un
18751 16657 16662 un
18752 16658 16659 un
18753 16660 16659 un
18754 16661 16660 un
18755 16660 16669 un
18756 16662 16661 un
18757 16661 16666 1
18758 16662 16663 1
18759 16664 16663 1
18760 16663 16705 1
18761 16663 16706 1
18762 16665 16664 1
18763 16664 16707 1
18764 16664 16708 1
18765 16666 16665 1
18766 16665 16709 1
18767 16665 16710 1
18768 16666 16667 1
18769 16666 16711 1
18770 16668 16667 1
18771 16667 16712 1
18772 16667 16713 1
18773 16669 16668 un
18774 16668 16673 un
18775 16669 16670 un
18776 16671 16670 un
18777 16670 16714 1
18778 16672 16671 un
18779 16671 16715 1
18780 16673 16672 un
18781 16672 16689 1
18782 16673 16688 1
18783 16674 16675 1
18784 16674 16716 1
18785 16674 16717 1
18786 16675 16718 1
18787 16675 16719 1
18788 16675 16720 1
18789 16676 16721 1
18790 16676 16722 1
18791 16676 16723 1
18792 16677 16724 1
18793 16677 16725 1
18794 16677 16726 1
18795 16678 16727 1
18796 16678 16728 1
18797 16678 16729 1
18798 16679 16730 1
18799 16679 16731 1
18800 16679 16732 1
18801 16680 16733 1
18802 16680 16734 1
18803 16680 16735 1
18804 16681 16736 1
18805 16682 16737 1
18806 16682 16738 1
18807 16682 16739 1
18808 16683 16740 1
18809 16683 16741 1
18810 16683 16742 1
18811 16684 16743 1
18812 16685 16744 1
18813 16688 16745 1
18814 16688 16746 1
18815 16688 16747 1
18816 16689 16748 1
18817 16689 16749 1
18818 16689 16750 1
18819 16751 16752 un
18820 16751 16756 un
18821 16751 16806 1
18822 16753 16752 un
18823 16752 16808 1
18824 16754 16753 un
18825 16753 16760 1
18826 16755 16754 un
18827 16754 16757 1
18828 16756 16755 un
18829 16755 16807 1
18830 16756 16804 1
18831 16758 16757 1
18832 16757 16820 1
18833 16757 16821 1
18834 16759 16758 un
18835 16758 16764 un
18836 16760 16759 1
18837 16759 16761 un
18838 16760 16822 1
18839 16760 16823 1
18840 16762 16761 un
18841 16761 16809 1
18842 16763 16762 un
18843 16762 16810 1
18844 16764 16763 un
18845 16763 16768 un
18846 16764 16765 un
18847 16766 16765 un
18848 16765 16824 1
18849 16767 16766 un
18850 16766 16772 un
18851 16768 16767 un
18852 16767 16769 1
18853 16768 16811 1
18854 16770 16769 1
18855 16769 16776 1
18856 16771 16770 1
18857 16770 16773 1
18858 16772 16771 un
18859 16771 16780 un
18860 16772 16777 un
18861 16774 16773 1
18862 16773 16825 1
18863 16773 16826 1
18864 16775 16774 un
18865 16774 16813 1
18866 16774 16827 1
18867 16776 16775 1
18868 16775 16812 1
18869 16775 16828 1
18870 16776 16829 1
18871 16776 16830 1
18872 16778 16777 un
18873 16777 16815 1
18874 16779 16778 un
18875 16778 16784 1
18876 16780 16779 un
18877 16779 16781 1
18878 16780 16814 1
18879 16782 16781 1
18880 16781 16817 2
18881 16783 16782 un
18882 16782 16788 un
18883 16784 16783 1
18884 16783 16785 1
18885 16784 16816 2
18886 16786 16785 1
18887 16785 16831 1
18888 16785 16832 1
18889 16787 16786 1
18890 16786 16833 1
18891 16786 16834 1
18892 16788 16787 un
18893 16787 16792 un
18894 16788 16789 un
18895 16790 16789 un
18896 16791 16790 un
18897 16790 16799 un
18898 16792 16791 un
18899 16791 16796 1
18900 16792 16793 1
18901 16794 16793 1
18902 16793 16835 1
18903 16793 16836 1
18904 16795 16794 1
18905 16794 16837 1
18906 16794 16838 1
18907 16796 16795 1
18908 16795 16839 1
18909 16795 16840 1
18910 16796 16797 1
18911 16796 16841 1
18912 16798 16797 1
18913 16797 16842 1
18914 16797 16843 1
18915 16799 16798 un
18916 16798 16803 un
18917 16799 16800 un
18918 16801 16800 un
18919 16800 16844 1
18920 16802 16801 un
18921 16801 16845 1
18922 16803 16802 un
18923 16802 16819 1
18924 16803 16818 1
18925 16804 16805 1
18926 16804 16846 1
18927 16804 16847 1
18928 16805 16848 1
18929 16805 16849 1
18930 16805 16850 1
18931 16806 16851 1
18932 16806 16852 1
18933 16806 16853 1
18934 16807 16854 1
18935 16807 16855 1
18936 16807 16856 1
18937 16808 16857 1
18938 16808 16858 1
18939 16808 16859 1
18940 16809 16860 1
18941 16809 16861 1
18942 16809 16862 1
18943 16810 16863 1
18944 16810 16864 1
18945 16810 16865 1
18946 16811 16866 1
18947 16812 16867 1
18948 16812 16868 1
18949 16812 16869 1
18950 16813 16870 1
18951 16813 16871 1
18952 16813 16872 1
18953 16814 16873 1
18954 16815 16874 1
18955 16818 16875 1
18956 16818 16876 1
18957 16818 16877 1
18958 16819 16878 1
18959 16819 16879 1
18960 16819 16880 1
18961 16881 16882 am
18962 16886 16881 am
18963 16881 16933 1
18964 16882 16883 am
18965 16882 16941 1
18966 16883 16884 am
18967 16883 16889 1
18968 16884 16885 am
18969 16884 16887 1
18970 16885 16886 am
18971 16885 16942 1
18972 16886 16934 1
18973 16887 16888 am
18974 16887 16893 am
18975 16888 16889 1
18976 16888 16890 am
18977 16889 16943 1
18978 16889 16944 1
18979 16890 16891 am
18980 16890 16903 am
18981 16891 16892 am
18982 16891 16900 am
18983 16892 16893 am
18984 16892 16897 1
18985 16893 16894 1
18986 16894 16895 1
18987 16894 16945 1
18988 16894 16946 1
18989 16895 16896 1
18990 16895 16947 1
18991 16895 16948 1
18992 16896 16897 1
18993 16896 16949 1
18994 16896 16950 1
18995 16897 16898 am
18996 16898 16899 am
18997 16898 16907 1
18998 16899 16900 am
18999 16899 16904 1
19000 16900 16901 am
19001 16901 16902 am
19002 16901 16921 am
19003 16902 16903 am
19004 16902 16919 1
19005 16903 16935 1
19006 16904 16905 1
19007 16904 16951 1
19008 16904 16980 1
19009 16905 16906 am
19010 16905 16911 am
19011 16906 16907 1
19012 16906 16908 am
19013 16907 16952 1
19014 16907 16981 1
19015 16908 16909 am
19016 16908 16939 1
19017 16909 16910 am
19018 16909 16915 1
19019 16910 16911 am
19020 16910 16912 1
19021 16911 16916 am
19022 16912 16913 1
19023 16912 16918 am
19024 16913 16914 1
19025 16913 16953 1
19026 16913 16954 1
19027 16914 16915 1
19028 16914 16955 1
19029 16914 16956 1
19030 16915 16957 1
19031 16915 16958 1
19032 16916 16917 am
19033 16916 16959 1
19034 16917 16918 am
19035 16917 16938 1
19036 16918 16960 1
19037 16919 16920 1
19038 16919 16961 1
19039 16919 16962 1
19040 16920 16921 am
19041 16920 16925 am
19042 16921 16922 am
19043 16922 16923 am
19044 16922 16963 1
19045 16923 16924 am
19046 16923 16932 am
19047 16924 16925 am
19048 16924 16929 am
19049 16925 16926 am
19050 16926 16927 am
19051 16926 16964 1
19052 16927 16928 am
19053 16927 16936 1
19054 16928 16929 am
19055 16928 16965 1
19056 16929 16930 am
19057 16930 16931 am
19058 16930 16940 1
19059 16931 16932 am
19060 16931 16966 1
19061 16932 16967 1
19062 16933 16968 1
19063 16934 16969 1
19064 16934 16970 1
19065 16934 16971 1
19066 16935 16972 1
19067 16936 16937 1
19068 16936 16973 1
19069 16936 16982 1
19070 16937 16974 1
19071 16937 16975 1
19072 16937 16976 1
19073 16938 16977 1
19074 16939 16978 1
19075 16940 16979 1
19076 16983 16984 am
19077 16988 16983 am
19078 16983 17035 1
19079 16984 16985 am
19080 16984 17043 1
19081 16985 16986 am
19082 16985 16991 1
19083 16986 16987 am
19084 16986 16989 1
19085 16987 16988 am
19086 16987 17044 1
19087 16988 17036 1
19088 16989 16990 am
19089 16989 16995 am
19090 16990 16991 1
19091 16990 16992 am
19092 16991 17045 1
19093 16991 17046 1
19094 16992 16993 am
19095 16992 17005 am
19096 16993 16994 am
19097 16993 17002 am
19098 16994 16995 am
19099 16994 16999 1
19100 16995 16996 1
19101 16996 16997 1
19102 16996 17047 1
19103 16996 17048 1
19104 16997 16998 1
19105 16997 17049 1
19106 16997 17050 1
19107 16998 16999 1
19108 16998 17051 1
19109 16998 17052 1
19110 16999 17000 am
19111 17000 17001 am
19112 17000 17009 1
19113 17001 17002 am
19114 17001 17006 1
19115 17002 17003 am
19116 17003 17004 am
19117 17003 17023 am
19118 17004 17005 am
19119 17004 17021 1
19120 17005 17037 1
19121 17006 17007 1
19122 17006 17053 1
19123 17006 17082 1
19124 17007 17008 am
19125 17007 17013 am
19126 17008 17009 1
19127 17008 17010 am
19128 17009 17054 1
19129 17009 17083 1
19130 17010 17011 am
19131 17010 17041 1
19132 17011 17012 am
19133 17011 17017 1
19134 17012 17013 am
19135 17012 17014 1
19136 17013 17018 am
19137 17014 17015 1
19138 17014 17020 am
19139 17015 17016 1
19140 17015 17055 1
19141 17015 17056 1
19142 17016 17017 1
19143 17016 17057 1
19144 17016 17058 1
19145 17017 17059 1
19146 17017 17060 1
19147 17018 17019 am
19148 17018 17061 1
19149 17019 17020 am
19150 17019 17040 1
19151 17020 17062 1
19152 17021 17022 1
19153 17021 17063 1
19154 17021 17064 1
19155 17022 17023 am
19156 17022 17027 am
19157 17023 17024 am
19158 17024 17025 am
19159 17024 17065 1
19160 17025 17026 am
19161 17025 17034 am
19162 17026 17027 am
19163 17026 17031 am
19164 17027 17028 am
19165 17028 17029 am
19166 17028 17066 1
19167 17029 17030 am
19168 17029 17038 1
19169 17030 17031 am
19170 17030 17067 1
19171 17031 17032 am
19172 17032 17033 am
19173 17032 17042 1
19174 17033 17034 am
19175 17033 17068 1
19176 17034 17069 1
19177 17035 17070 1
19178 17036 17071 1
19179 17036 17072 1
19180 17036 17073 1
19181 17037 17074 1
19182 17038 17039 1
19183 17038 17075 1
19184 17038 17084 1
19185 17039 17076 1
19186 17039 17077 1
19187 17039 17078 1
19188 17040 17079 1
19189 17041 17080 1
19190 17042 17081 1
19191 17085 17086 am
19192 17090 17085 am
19193 17085 17137 1
19194 17086 17087 am
19195 17086 17145 1
19196 17087 17088 am
19197 17087 17093 1
19198 17088 17089 am
19199 17088 17091 1
19200 17089 17090 am
19201 17089 17146 1
19202 17090 17138 1
19203 17091 17092 am
19204 17091 17097 am
19205 17092 17093 1
19206 17092 17094 am
19207 17093 17147 1
19208 17093 17148 1
19209 17094 17095 am
19210 17094 17107 am
19211 17095 17096 am
19212 17095 17104 am
19213 17096 17097 am
19214 17096 17101 1
19215 17097 17098 1
19216 17098 17099 1
19217 17098 17149 1
19218 17098 17150 1
19219 17099 17100 1
19220 17099 17151 1
19221 17099 17152 1
19222 17100 17101 1
19223 17100 17153 1
19224 17100 17154 1
19225 17101 17102 am
19226 17102 17103 am
19227 17102 17111 1
19228 17103 17104 am
19229 17103 17108 1
19230 17104 17105 am
19231 17105 17106 am
19232 17105 17125 am
19233 17106 17107 am
19234 17106 17123 1
19235 17107 17139 1
19236 17108 17109 1
19237 17108 17155 1
19238 17108 17184 1
19239 17109 17110 am
19240 17109 17115 am
19241 17110 17111 1
19242 17110 17112 am
19243 17111 17156 1
19244 17111 17185 1
19245 17112 17113 am
19246 17112 17143 1
19247 17113 17114 am
19248 17113 17119 1
19249 17114 17115 am
19250 17114 17116 1
19251 17115 17120 am
19252 17116 17117 1
19253 17116 17122 am
19254 17117 17118 1
19255 17117 17157 1
19256 17117 17158 1
19257 17118 17119 1
19258 17118 17159 1
19259 17118 17160 1
19260 17119 17161 1
19261 17119 17162 1
19262 17120 17121 am
19263 17120 17163 1
19264 17121 17122 am
19265 17121 17142 1
19266 17122 17164 1
19267 17123 17124 1
19268 17123 17165 1
19269 17123 17166 1
19270 17124 17125 am
19271 17124 17129 am
19272 17125 17126 am
19273 17126 17127 am
19274 17126 17167 1
19275 17127 17128 am
19276 17127 17136 am
19277 17128 17129 am
19278 17128 17133 am
19279 17129 17130 am
19280 17130 17131 am
19281 17130 17168 1
19282 17131 17132 am
19283 17131 17140 1
19284 17132 17133 am
19285 17132 17169 1
19286 17133 17134 am
19287 17134 17135 am
19288 17134 17144 1
19289 17135 17136 am
19290 17135 17170 1
19291 17136 17171 1
19292 17137 17172 1
19293 17138 17173 1
19294 17138 17174 1
19295 17138 17175 1
19296 17139 17176 1
19297 17140 17141 1
19298 17140 17177 1
19299 17140 17186 1
19300 17141 17178 1
19301 17141 17179 1
19302 17141 17180 1
19303 17142 17181 1
19304 17143 17182 1
19305 17144 17183 1
19306 17187 17188 am
19307 17192 17187 am
19308 17187 17239 1
19309 17188 17189 am
19310 17188 17247 1
19311 17189 17190 am
19312 17189 17195 1
19313 17190 17191 am
19314 17190 17193 1
19315 17191 17192 am
19316 17191 17248 1
19317 17192 17240 1
19318 17193 17194 am
19319 17193 17199 am
19320 17194 17195 1
19321 17194 17196 am
19322 17195 17249 1
19323 17195 17250 1
19324 17196 17197 am
19325 17196 17209 am
19326 17197 17198 am
19327 17197 17206 am
19328 17198 17199 am
19329 17198 17203 1
19330 17199 17200 1
19331 17200 17201 1
19332 17200 17251 1
19333 17200 17252 1
19334 17201 17202 1
19335 17201 17253 1
19336 17201 17254 1
19337 17202 17203 1
19338 17202 17255 1
19339 17202 17256 1
19340 17203 17204 am
19341 17204 17205 am
19342 17204 17213 1
19343 17205 17206 am
19344 17205 17210 1
19345 17206 17207 am
19346 17207 17208 am
19347 17207 17227 am
19348 17208 17209 am
19349 17208 17225 1
19350 17209 17241 1
19351 17210 17211 1
19352 17210 17257 1
19353 17210 17286 1
19354 17211 17212 am
19355 17211 17217 am
19356 17212 17213 1
19357 17212 17214 am
19358 17213 17258 1
19359 17213 17287 1
19360 17214 17215 am
19361 17214 17245 1
19362 17215 17216 am
19363 17215 17221 1
19364 17216 17217 am
19365 17216 17218 1
19366 17217 17222 am
19367 17218 17219 1
19368 17218 17224 am
19369 17219 17220 1
19370 17219 17259 1
19371 17219 17260 1
19372 17220 17221 1
19373 17220 17261 1
19374 17220 17262 1
19375 17221 17263 1
19376 17221 17264 1
19377 17222 17223 am
19378 17222 17265 1
19379 17223 17224 am
19380 17223 17244 1
19381 17224 17266 1
19382 17225 17226 1
19383 17225 17267 1
19384 17225 17268 1
19385 17226 17227 am
19386 17226 17231 am
19387 17227 17228 am
19388 17228 17229 am
19389 17228 17269 1
19390 17229 17230 am
19391 17229 17238 am
19392 17230 17231 am
19393 17230 17235 am
19394 17231 17232 am
19395 17232 17233 am
19396 17232 17270 1
19397 17233 17234 am
19398 17233 17242 1
19399 17234 17235 am
19400 17234 17271 1
19401 17235 17236 am
19402 17236 17237 am
19403 17236 17246 1
19404 17237 17238 am
19405 17237 17272 1
19406 17238 17273 1
19407 17239 17274 1
19408 17240 17275 1
19409 17240 17276 1
19410 17240 17277 1
19411 17241 17278 1
19412 17242 17243 1
19413 17242 17279 1
19414 17242 17288 1
19415 17243 17280 1
19416 17243 17281 1
19417 17243 17282 1
19418 17244 17283 1
19419 17245 17284 1
19420 17246 17285 1
19421 17289 17290 am
19422 17294 17289 am
19423 17289 17341 1
19424 17290 17291 am
19425 17290 17349 1
19426 17291 17292 am
19427 17291 17297 1
19428 17292 17293 am
19429 17292 17295 1
19430 17293 17294 am
19431 17293 17350 1
19432 17294 17342 1
19433 17295 17296 am
19434 17295 17301 am
19435 17296 17297 1
19436 17296 17298 am
19437 17297 17351 1
19438 17297 17352 1
19439 17298 17299 am
19440 17298 17311 am
19441 17299 17300 am
19442 17299 17308 am
19443 17300 17301 am
19444 17300 17305 1
19445 17301 17302 1
19446 17302 17303 1
19447 17302 17353 1
19448 17302 17354 1
19449 17303 17304 1
19450 17303 17355 1
19451 17303 17356 1
19452 17304 17305 1
19453 17304 17357 1
19454 17304 17358 1
19455 17305 17306 am
19456 17306 17307 am
19457 17306 17315 1
19458 17307 17308 am
19459 17307 17312 1
19460 17308 17309 am
19461 17309 17310 am
19462 17309 17329 am
19463 17310 17311 am
19464 17310 17327 1
19465 17311 17343 1
19466 17312 17313 1
19467 17312 17359 1
19468 17312 17388 1
19469 17313 17314 am
19470 17313 17319 am
19471 17314 17315 1
19472 17314 17316 am
19473 17315 17360 1
19474 17315 17389 1
19475 17316 17317 am
19476 17316 17347 1
19477 17317 17318 am
19478 17317 17323 1
19479 17318 17319 am
19480 17318 17320 1
19481 17319 17324 am
19482 17320 17321 1
19483 17320 17326 am
19484 17321 17322 1
19485 17321 17361 1
19486 17321 17362 1
19487 17322 17323 1
19488 17322 17363 1
19489 17322 17364 1
19490 17323 17365 1
19491 17323 17366 1
19492 17324 17325 am
19493 17324 17367 1
19494 17325 17326 am
19495 17325 17346 1
19496 17326 17368 1
19497 17327 17328 1
19498 17327 17369 1
19499 17327 17370 1
19500 17328 17329 am
19501 17328 17333 am
19502 17329 17330 am
19503 17330 17331 am
19504 17330 17371 1
19505 17331 17332 am
19506 17331 17340 am
19507 17332 17333 am
19508 17332 17337 am
19509 17333 17334 am
19510 17334 17335 am
19511 17334 17372 1
19512 17335 17336 am
19513 17335 17344 1
19514 17336 17337 am
19515 17336 17373 1
19516 17337 17338 am
19517 17338 17339 am
19518 17338 17348 1
19519 17339 17340 am
19520 17339 17374 1
19521 17340 17375 1
19522 17341 17376 1
19523 17342 17377 1
19524 17342 17378 1
19525 17342 17379 1
19526 17343 17380 1
19527 17344 17345 1
19528 17344 17381 1
19529 17344 17390 1
19530 17345 17382 1
19531 17345 17383 1
19532 17345 17384 1
19533 17346 17385 1
19534 17347 17386 1
19535 17348 17387 1
19536 17391 17392 am
19537 17396 17391 am
19538 17391 17443 1
19539 17392 17393 am
19540 17392 17451 1
19541 17393 17394 am
19542 17393 17399 1
19543 17394 17395 am
19544 17394 17397 1
19545 17395 17396 am
19546 17395 17452 1
19547 17396 17444 1
19548 17397 17398 am
19549 17397 17403 am
19550 17398 17399 1
19551 17398 17400 am
19552 17399 17453 1
19553 17399 17454 1
19554 17400 17401 am
19555 17400 17413 am
19556 17401 17402 am
19557 17401 17410 am
19558 17402 17403 am
19559 17402 17407 1
19560 17403 17404 1
19561 17404 17405 1
19562 17404 17455 1
19563 17404 17456 1
19564 17405 17406 1
19565 17405 17457 1
19566 17405 17458 1
19567 17406 17407 1
19568 17406 17459 1
19569 17406 17460 1
19570 17407 17408 am
19571 17408 17409 am
19572 17408 17417 1
19573 17409 17410 am
19574 17409 17414 1
19575 17410 17411 am
19576 17411 17412 am
19577 17411 17431 am
19578 17412 17413 am
19579 17412 17429 1
19580 17413 17445 1
19581 17414 17415 1
19582 17414 17461 1
19583 17414 17490 1
19584 17415 17416 am
19585 17415 17421 am
19586 17416 17417 1
19587 17416 17418 am
19588 17417 17462 1
19589 17417 17491 1
19590 17418 17419 am
19591 17418 17449 1
19592 17419 17420 am
19593 17419 17425 1
19594 17420 17421 am
19595 17420 17422 1
19596 17421 17426 am
19597 17422 17423 1
19598 17422 17428 am
19599 17423 17424 1
19600 17423 17463 1
19601 17423 17464 1
19602 17424 17425 1
19603 17424 17465 1
19604 17424 17466 1
19605 17425 17467 1
19606 17425 17468 1
19607 17426 17427 am
19608 17426 17469 1
19609 17427 17428 am
19610 17427 17448 1
19611 17428 17470 1
19612 17429 17430 1
19613 17429 17471 1
19614 17429 17472 1
19615 17430 17431 am
19616 17430 17435 am
19617 17431 17432 am
19618 17432 17433 am
19619 17432 17473 1
19620 17433 17434 am
19621 17433 17442 am
19622 17434 17435 am
19623 17434 17439 am
19624 17435 17436 am
19625 17436 17437 am
19626 17436 17474 1
19627 17437 17438 am
19628 17437 17446 1
19629 17438 17439 am
19630 17438 17475 1
19631 17439 17440 am
19632 17440 17441 am
19633 17440 17450 1
19634 17441 17442 am
19635 17441 17476 1
19636 17442 17477 1
19637 17443 17478 1
19638 17444 17479 1
19639 17444 17480 1
19640 17444 17481 1
19641 17445 17482 1
19642 17446 17447 1
19643 17446 17483 1
19644 17446 17492 1
19645 17447 17484 1
19646 17447 17485 1
19647 17447 17486 1
19648 17448 17487 1
19649 17449 17488 1
19650 17450 17489 1
19651 17493 17494 am
19652 17498 17493 am
19653 17493 17545 1
19654 17494 17495 am
19655 17494 17553 1
19656 17495 17496 am
19657 17495 17501 1
19658 17496 17497 am
19659 17496 17499 1
19660 17497 17498 am
19661 17497 17554 1
19662 17498 17546 1
19663 17499 17500 am
19664 17499 17505 am
19665 17500 17501 1
19666 17500 17502 am
19667 17501 17555 1
19668 17501 17556 1
19669 17502 17503 am
19670 17502 17515 am
19671 17503 17504 am
19672 17503 17512 am
19673 17504 17505 am
19674 17504 17509 1
19675 17505 17506 1
19676 17506 17507 1
19677 17506 17557 1
19678 17506 17558 1
19679 17507 17508 1
19680 17507 17559 1
19681 17507 17560 1
19682 17508 17509 1
19683 17508 17561 1
19684 17508 17562 1
19685 17509 17510 am
19686 17510 17511 am
19687 17510 17519 1
19688 17511 17512 am
19689 17511 17516 1
19690 17512 17513 am
19691 17513 17514 am
19692 17513 17533 am
19693 17514 17515 am
19694 17514 17531 1
19695 17515 17547 1
19696 17516 17517 1
19697 17516 17563 1
19698 17516 17592 1
19699 17517 17518 am
19700 17517 17523 am
19701 17518 17519 1
19702 17518 17520 am
19703 17519 17564 1
19704 17519 17593 1
19705 17520 17521 am
19706 17520 17551 1
19707 17521 17522 am
19708 17521 17527 1
19709 17522 17523 am
19710 17522 17524 1
19711 17523 17528 am
19712 17524 17525 1
19713 17524 17530 am
19714 17525 17526 1
19715 17525 17565 1
19716 17525 17566 1
19717 17526 17527 1
19718 17526 17567 1
19719 17526 17568 1
19720 17527 17569 1
19721 17527 17570 1
19722 17528 17529 am
19723 17528 17571 1
19724 17529 17530 am
19725 17529 17550 1
19726 17530 17572 1
19727 17531 17532 1
19728 17531 17573 1
19729 17531 17574 1
19730 17532 17533 am
19731 17532 17537 am
19732 17533 17534 am
19733 17534 17535 am
19734 17534 17575 1
19735 17535 17536 am
19736 17535 17544 am
19737 17536 17537 am
19738 17536 17541 am
19739 17537 17538 am
19740 17538 17539 am
19741 17538 17576 1
19742 17539 17540 am
19743 17539 17548 1
19744 17540 17541 am
19745 17540 17577 1
19746 17541 17542 am
19747 17542 17543 am
19748 17542 17552 1
19749 17543 17544 am
19750 17543 17578 1
19751 17544 17579 1
19752 17545 17580 1
19753 17546 17581 1
19754 17546 17582 1
19755 17546 17583 1
19756 17547 17584 1
19757 17548 17549 1
19758 17548 17585 1
19759 17548 17594 1
19760 17549 17586 1
19761 17549 17587 1
19762 17549 17588 1
19763 17550 17589 1
19764 17551 17590 1
19765 17552 17591 1
19766 17595 17596 am
19767 17600 17595 am
19768 17595 17647 1
19769 17596 17597 am
19770 17596 17655 1
19771 17597 17598 am
19772 17597 17603 1
19773 17598 17599 am
19774 17598 17601 1
19775 17599 17600 am
19776 17599 17656 1
19777 17600 17648 1
19778 17601 17602 am
19779 17601 17607 am
19780 17602 17603 1
19781 17602 17604 am
19782 17603 17657 1
19783 17603 17658 1
19784 17604 17605 am
19785 17604 17617 am
19786 17605 17606 am
19787 17605 17614 am
19788 17606 17607 am
19789 17606 17611 1
19790 17607 17608 1
19791 17608 17609 1
19792 17608 17659 1
19793 17608 17660 1
19794 17609 17610 1
19795 17609 17661 1
19796 17609 17662 1
19797 17610 17611 1
19798 17610 17663 1
19799 17610 17664 1
19800 17611 17612 am
19801 17612 17613 am
19802 17612 17621 1
19803 17613 17614 am
19804 17613 17618 1
19805 17614 17615 am
19806 17615 17616 am
19807 17615 17635 am
19808 17616 17617 am
19809 17616 17633 1
19810 17617 17649 1
19811 17618 17619 1
19812 17618 17665 1
19813 17618 17694 1
19814 17619 17620 am
19815 17619 17625 am
19816 17620 17621 1
19817 17620 17622 am
19818 17621 17666 1
19819 17621 17695 1
19820 17622 17623 am
19821 17622 17653 1
19822 17623 17624 am
19823 17623 17629 1
19824 17624 17625 am
19825 17624 17626 1
19826 17625 17630 am
19827 17626 17627 1
19828 17626 17632 am
19829 17627 17628 1
19830 17627 17667 1
19831 17627 17668 1
19832 17628 17629 1
19833 17628 17669 1
19834 17628 17670 1
19835 17629 17671 1
19836 17629 17672 1
19837 17630 17631 am
19838 17630 17673 1
19839 17631 17632 am
19840 17631 17652 1
19841 17632 17674 1
19842 17633 17634 1
19843 17633 17675 1
19844 17633 17676 1
19845 17634 17635 am
19846 17634 17639 am
19847 17635 17636 am
19848 17636 17637 am
19849 17636 17677 1
19850 17637 17638 am
19851 17637 17646 am
19852 17638 17639 am
19853 17638 17643 am
19854 17639 17640 am
19855 17640 17641 am
19856 17640 17678 1
19857 17641 17642 am
19858 17641 17650 1
19859 17642 17643 am
19860 17642 17679 1
19861 17643 17644 am
19862 17644 17645 am
19863 17644 17654 1
19864 17645 17646 am
19865 17645 17680 1
19866 17646 17681 1
19867 17647 17682 1
19868 17648 17683 1
19869 17648 17684 1
19870 17648 17685 1
19871 17649 17686 1
19872 17650 17651 1
19873 17650 17687 1
19874 17650 17696 1
19875 17651 17688 1
19876 17651 17689 1
19877 17651 17690 1
19878 17652 17691 1
19879 17653 17692 1
19880 17654 17693 1
19881 17697 17698 am
19882 17702 17697 am
19883 17697 17749 1
19884 17698 17699 am
19885 17698 17757 1
19886 17699 17700 am
19887 17699 17705 1
19888 17700 17701 am
19889 17700 17703 1
19890 17701 17702 am
19891 17701 17758 1
19892 17702 17750 1
19893 17703 17704 am
19894 17703 17709 am
19895 17704 17705 1
19896 17704 17706 am
19897 17705 17759 1
19898 17705 17760 1
19899 17706 17707 am
19900 17706 17719 am
19901 17707 17708 am
19902 17707 17716 am
19903 17708 17709 am
19904 17708 17713 1
19905 17709 17710 1
19906 17710 17711 1
19907 17710 17761 1
19908 17710 17762 1
19909 17711 17712 1
19910 17711 17763 1
19911 17711 17764 1
19912 17712 17713 1
19913 17712 17765 1
19914 17712 17766 1
19915 17713 17714 am
19916 17714 17715 am
19917 17714 17723 1
19918 17715 17716 am
19919 17715 17720 1
19920 17716 17717 am
19921 17717 17718 am
19922 17717 17737 am
19923 17718 17719 am
19924 17718 17735 1
19925 17719 17751 1
19926 17720 17721 1
19927 17720 17767 1
19928 17720 17796 1
19929 17721 17722 am
19930 17721 17727 am
19931 17722 17723 1
19932 17722 17724 am
19933 17723 17768 1
19934 17723 17797 1
19935 17724 17725 am
19936 17724 17755 1
19937 17725 17726 am
19938 17725 17731 1
19939 17726 17727 am
19940 17726 17728 1
19941 17727 17732 am
19942 17728 17729 1
19943 17728 17734 am
19944 17729 17730 1
19945 17729 17769 1
19946 17729 17770 1
19947 17730 17731 1
19948 17730 17771 1
19949 17730 17772 1
19950 17731 17773 1
19951 17731 17774 1
19952 17732 17733 am
19953 17732 17775 1
19954 17733 17734 am
19955 17733 17754 1
19956 17734 17776 1
19957 17735 17736 1
19958 17735 17777 1
19959 17735 17778 1
19960 17736 17737 am
19961 17736 17741 am
19962 17737 17738 am
19963 17738 17739 am
19964 17738 17779 1
19965 17739 17740 am
19966 17739 17748 am
19967 17740 17741 am
19968 17740 17745 am
19969 17741 17742 am
19970 17742 17743 am
19971 17742 17780 1
19972 17743 17744 am
19973 17743 17752 1
19974 17744 17745 am
19975 17744 17781 1
19976 17745 17746 am
19977 17746 17747 am
19978 17746 17756 1
19979 17747 17748 am
19980 17747 17782 1
19981 17748 17783 1
19982 17749 17784 1
19983 17750 17785 1
19984 17750 17786 1
19985 17750 17787 1
19986 17751 17788 1
19987 17752 17753 1
19988 17752 17789 1
19989 17752 17798 1
19990 17753 17790 1
19991 17753 17791 1
19992 17753 17792 1
19993 17754 17793 1
19994 17755 17794 1
19995 17756 17795 1
19996 17799 17800 am
19997 17804 17799 am
19998 17799 17851 1
19999 17800 17801 am
20000 17800 17859 1
20001 17801 17802 am
20002 17801 17807 1
20003 17802 17803 am
20004 17802 17805 1
20005 17803 17804 am
20006 17803 17860 1
20007 17804 17852 1
20008 17805 17806 am
20009 17805 17811 am
20010 17806 17807 1
20011 17806 17808 am
20012 17807 17861 1
20013 17807 17862 1
20014 17808 17809 am
20015 17808 17821 am
20016 17809 17810 am
20017 17809 17818 am
20018 17810 17811 am
20019 17810 17815 1
20020 17811 17812 1
20021 17812 17813 1
20022 17812 17863 1
20023 17812 17864 1
20024 17813 17814 1
20025 17813 17865 1
20026 17813 17866 1
20027 17814 17815 1
20028 17814 17867 1
20029 17814 17868 1
20030 17815 17816 am
20031 17816 17817 am
20032 17816 17825 1
20033 17817 17818 am
20034 17817 17822 1
20035 17818 17819 am
20036 17819 17820 am
20037 17819 17839 am
20038 17820 17821 am
20039 17820 17837 1
20040 17821 17853 1
20041 17822 17823 1
20042 17822 17869 1
20043 17822 17898 1
20044 17823 17824 am
20045 17823 17829 am
20046 17824 17825 1
20047 17824 17826 am
20048 17825 17870 1
20049 17825 17899 1
20050 17826 17827 am
20051 17826 17857 1
20052 17827 17828 am
20053 17827 17833 1
20054 17828 17829 am
20055 17828 17830 1
20056 17829 17834 am
20057 17830 17831 1
20058 17830 17836 am
20059 17831 17832 1
20060 17831 17871 1
20061 17831 17872 1
20062 17832 17833 1
20063 17832 17873 1
20064 17832 17874 1
20065 17833 17875 1
20066 17833 17876 1
20067 17834 17835 am
20068 17834 17877 1
20069 17835 17836 am
20070 17835 17856 1
20071 17836 17878 1
20072 17837 17838 1
20073 17837 17879 1
20074 17837 17880 1
20075 17838 17839 am
20076 17838 17843 am
20077 17839 17840 am
20078 17840 17841 am
20079 17840 17881 1
20080 17841 17842 am
20081 17841 17850 am
20082 17842 17843 am
20083 17842 17847 am
20084 17843 17844 am
20085 17844 17845 am
20086 17844 17882 1
20087 17845 17846 am
20088 17845 17854 1
20089 17846 17847 am
20090 17846 17883 1
20091 17847 17848 am
20092 17848 17849 am
20093 17848 17858 1
20094 17849 17850 am
20095 17849 17884 1
20096 17850 17885 1
20097 17851 17886 1
20098 17852 17887 1
20099 17852 17888 1
20100 17852 17889 1
20101 17853 17890 1
20102 17854 17855 1
20103 17854 17891 1
20104 17854 17900 1
20105 17855 17892 1
20106 17855 17893 1
20107 17855 17894 1
20108 17856 17895 1
20109 17857 17896 1
20110 17858 17897 1
20111 17901 17902 am
20112 17906 17901 am
20113 17901 17953 1
20114 17902 17903 am
20115 17902 17961 1
20116 17903 17904 am
20117 17903 17909 1
20118 17904 17905 am
20119 17904 17907 1
20120 17905 17906 am
20121 17905 17962 1
20122 17906 17954 1
20123 17907 17908 am
20124 17907 17913 am
20125 17908 17909 1
20126 17908 17910 am
20127 17909 17963 1
20128 17909 17964 1
20129 17910 17911 am
20130 17910 17923 am
20131 17911 17912 am
20132 17911 17920 am
20133 17912 17913 am
20134 17912 17917 1
20135 17913 17914 1
20136 17914 17915 1
20137 17914 17965 1
20138 17914 17966 1
20139 17915 17916 1
20140 17915 17967 1
20141 17915 17968 1
20142 17916 17917 1
20143 17916 17969 1
20144 17916 17970 1
20145 17917 17918 am
20146 17918 17919 am
20147 17918 17927 1
20148 17919 17920 am
20149 17919 17924 1
20150 17920 17921 am
20151 17921 17922 am
20152 17921 17941 am
20153 17922 17923 am
20154 17922 17939 1
20155 17923 17955 1
20156 17924 17925 1
20157 17924 17971 1
20158 17924 18000 1
20159 17925 17926 am
20160 17925 17931 am
20161 17926 17927 1
20162 17926 17928 am
20163 17927 17972 1
20164 17927 18001 1
20165 17928 17929 am
20166 17928 17959 1
20167 17929 17930 am
20168 17929 17935 1
20169 17930 17931 am
20170 17930 17932 1
20171 17931 17936 am
20172 17932 17933 1
20173 17932 17938 am
20174 17933 17934 1
20175 17933 17973 1
20176 17933 17974 1
20177 17934 17935 1
20178 17934 17975 1
20179 17934 17976 1
20180 17935 17977 1
20181 17935 17978 1
20182 17936 17937 am
20183 17936 17979 1
20184 17937 17938 am
20185 17937 17958 1
20186 17938 17980 1
20187 17939 17940 1
20188 17939 17981 1
20189 17939 17982 1
20190 17940 17941 am
20191 17940 17945 am
20192 17941 17942 am
20193 17942 17943 am
20194 17942 17983 1
20195 17943 17944 am
20196 17943 17952 am
20197 17944 17945 am
20198 17944 17949 am
20199 17945 17946 am
20200 17946 17947 am
20201 17946 17984 1
20202 17947 17948 am
20203 17947 17956 1
20204 17948 17949 am
20205 17948 17985 1
20206 17949 17950 am
20207 17950 17951 am
20208 17950 17960 1
20209 17951 17952 am
20210 17951 17986 1
20211 17952 17987 1
20212 17953 17988 1
20213 17954 17989 1
20214 17954 17990 1
20215 17954 17991 1
20216 17955 17992 1
20217 17956 17957 1
20218 17956 17993 1
20219 17956 18002 1
20220 17957 17994 1
20221 17957 17995 1
20222 17957 17996 1
20223 17958 17997 1
20224 17959 17998 1
20225 17960 17999 1
20226 18003 18004 am
20227 18008 18003 am
20228 18003 18055 1
20229 18004 18005 am
20230 18004 18063 1
20231 18005 18006 am
20232 18005 18011 1
20233 18006 18007 am
20234 18006 18009 1
20235 18007 18008 am
20236 18007 18064 1
20237 18008 18056 1
20238 18009 18010 am
20239 18009 18015 am
20240 18010 18011 1
20241 18010 18012 am
20242 18011 18065 1
20243 18011 18066 1
20244 18012 18013 am
20245 18012 18025 am
20246 18013 18014 am
20247 18013 18022 am
20248 18014 18015 am
20249 18014 18019 1
20250 18015 18016 1
20251 18016 18017 1
20252 18016 18067 1
20253 18016 18068 1
20254 18017 18018 1
20255 18017 18069 1
20256 18017 18070 1
20257 18018 18019 1
20258 18018 18071 1
20259 18018 18072 1
20260 18019 18020 am
20261 18020 18021 am
20262 18020 18029 1
20263 18021 18022 am
20264 18021 18026 1
20265 18022 18023 am
20266 18023 18024 am
20267 18023 18043 am
20268 18024 18025 am
20269 18024 18041 1
20270 18025 18057 1
20271 18026 18027 1
20272 18026 18073 1
20273 18026 18102 1
20274 18027 18028 am
20275 18027 18033 am
20276 18028 18029 1
20277 18028 18030 am
20278 18029 18074 1
20279 18029 18103 1
20280 18030 18031 am
20281 18030 18061 1
20282 18031 18032 am
20283 18031 18037 1
20284 18032 18033 am
20285 18032 18034 1
20286 18033 18038 am
20287 18034 18035 1
20288 18034 18040 am
20289 18035 18036 1
20290 18035 18075 1
20291 18035 18076 1
20292 18036 18037 1
20293 18036 18077 1
20294 18036 18078 1
20295 18037 18079 1
20296 18037 18080 1
20297 18038 18039 am
20298 18038 18081 1
20299 18039 18040 am
20300 18039 18060 1
20301 18040 18082 1
20302 18041 18042 1
20303 18041 18083 1
20304 18041 18084 1
20305 18042 18043 am
20306 18042 18047 am
20307 18043 18044 am
20308 18044 18045 am
20309 18044 18085 1
20310 18045 18046 am
20311 18045 18054 am
20312 18046 18047 am
20313 18046 18051 am
20314 18047 18048 am
20315 18048 18049 am
20316 18048 18086 1
20317 18049 18050 am
20318 18049 18058 1
20319 18050 18051 am
20320 18050 18087 1
20321 18051 18052 am
20322 18052 18053 am
20323 18052 18062 1
20324 18053 18054 am
20325 18053 18088 1
20326 18054 18089 1
20327 18055 18090 1
20328 18056 18091 1
20329 18056 18092 1
20330 18056 18093 1
20331 18057 18094 1
20332 18058 18059 1
20333 18058 18095 1
20334 18058 18104 1
20335 18059 18096 1
20336 18059 18097 1
20337 18059 18098 1
20338 18060 18099 1
20339 18061 18100 1
20340 18062 18101 1
20341 18105 18106 am
20342 18110 18105 am
20343 18105 18157 1
20344 18106 18107 am
20345 18106 18165 1
20346 18107 18108 am
20347 18107 18113 1
20348 18108 18109 am
20349 18108 18111 1
20350 18109 18110 am
20351 18109 18166 1
20352 18110 18158 1
20353 18111 18112 am
20354 18111 18117 am
20355 18112 18113 1
20356 18112 18114 am
20357 18113 18167 1
20358 18113 18168 1
20359 18114 18115 am
20360 18114 18127 am
20361 18115 18116 am
20362 18115 18124 am
20363 18116 18117 am
20364 18116 18121 1
20365 18117 18118 1
20366 18118 18119 1
20367 18118 18169 1
20368 18118 18170 1
20369 18119 18120 1
20370 18119 18171 1
20371 18119 18172 1
20372 18120 18121 1
20373 18120 18173 1
20374 18120 18174 1
20375 18121 18122 am
20376 18122 18123 am
20377 18122 18131 1
20378 18123 18124 am
20379 18123 18128 1
20380 18124 18125 am
20381 18125 18126 am
20382 18125 18145 am
20383 18126 18127 am
20384 18126 18143 1
20385 18127 18159 1
20386 18128 18129 1
20387 18128 18175 1
20388 18128 18204 1
20389 18129 18130 am
20390 18129 18135 am
20391 18130 18131 1
20392 18130 18132 am
20393 18131 18176 1
20394 18131 18205 1
20395 18132 18133 am
20396 18132 18163 1
20397 18133 18134 am
20398 18133 18139 1
20399 18134 18135 am
20400 18134 18136 1
20401 18135 18140 am
20402 18136 18137 1
20403 18136 18142 am
20404 18137 18138 1
20405 18137 18177 1
20406 18137 18178 1
20407 18138 18139 1
20408 18138 18179 1
20409 18138 18180 1
20410 18139 18181 1
20411 18139 18182 1
20412 18140 18141 am
20413 18140 18183 1
20414 18141 18142 am
20415 18141 18162 1
20416 18142 18184 1
20417 18143 18144 1
20418 18143 18185 1
20419 18143 18186 1
20420 18144 18145 am
20421 18144 18149 am
20422 18145 18146 am
20423 18146 18147 am
20424 18146 18187 1
20425 18147 18148 am
20426 18147 18156 am
20427 18148 18149 am
20428 18148 18153 am
20429 18149 18150 am
20430 18150 18151 am
20431 18150 18188 1
20432 18151 18152 am
20433 18151 18160 1
20434 18152 18153 am
20435 18152 18189 1
20436 18153 18154 am
20437 18154 18155 am
20438 18154 18164 1
20439 18155 18156 am
20440 18155 18190 1
20441 18156 18191 1
20442 18157 18192 1
20443 18158 18193 1
20444 18158 18194 1
20445 18158 18195 1
20446 18159 18196 1
20447 18160 18161 1
20448 18160 18197 1
20449 18160 18206 1
20450 18161 18198 1
20451 18161 18199 1
20452 18161 18200 1
20453 18162 18201 1
20454 18163 18202 1
20455 18164 18203 1
20456 18207 18208 am
20457 18212 18207 am
20458 18207 18259 1
20459 18208 18209 am
20460 18208 18267 1
20461 18209 18210 am
20462 18209 18215 1
20463 18210 18211 am
20464 18210 18213 1
20465 18211 18212 am
20466 18211 18268 1
20467 18212 18260 1
20468 18213 18214 am
20469 18213 18219 am
20470 18214 18215 1
20471 18214 18216 am
20472 18215 18269 1
20473 18215 18270 1
20474 18216 18217 am
20475 18216 18229 am
20476 18217 18218 am
20477 18217 18226 am
20478 18218 18219 am
20479 18218 18223 1
20480 18219 18220 1
20481 18220 18221 1
20482 18220 18271 1
20483 18220 18272 1
20484 18221 18222 1
20485 18221 18273 1
20486 18221 18274 1
20487 18222 18223 1
20488 18222 18275 1
20489 18222 18276 1
20490 18223 18224 am
20491 18224 18225 am
20492 18224 18233 1
20493 18225 18226 am
20494 18225 18230 1
20495 18226 18227 am
20496 18227 18228 am
20497 18227 18247 am
20498 18228 18229 am
20499 18228 18245 1
20500 18229 18261 1
20501 18230 18231 1
20502 18230 18277 1
20503 18230 18306 1
20504 18231 18232 am
20505 18231 18237 am
20506 18232 18233 1
20507 18232 18234 am
20508 18233 18278 1
20509 18233 18307 1
20510 18234 18235 am
20511 18234 18265 1
20512 18235 18236 am
20513 18235 18241 1
20514 18236 18237 am
20515 18236 18238 1
20516 18237 18242 am
20517 18238 18239 1
20518 18238 18244 am
20519 18239 18240 1
20520 18239 18279 1
20521 18239 18280 1
20522 18240 18241 1
20523 18240 18281 1
20524 18240 18282 1
20525 18241 18283 1
20526 18241 18284 1
20527 18242 18243 am
20528 18242 18285 1
20529 18243 18244 am
20530 18243 18264 1
20531 18244 18286 1
20532 18245 18246 1
20533 18245 18287 1
20534 18245 18288 1
20535 18246 18247 am
20536 18246 18251 am
20537 18247 18248 am
20538 18248 18249 am
20539 18248 18289 1
20540 18249 18250 am
20541 18249 18258 am
20542 18250 18251 am
20543 18250 18255 am
20544 18251 18252 am
20545 18252 18253 am
20546 18252 18290 1
20547 18253 18254 am
20548 18253 18262 1
20549 18254 18255 am
20550 18254 18291 1
20551 18255 18256 am
20552 18256 18257 am
20553 18256 18266 1
20554 18257 18258 am
20555 18257 18292 1
20556 18258 18293 1
20557 18259 18294 1
20558 18260 18295 1
20559 18260 18296 1
20560 18260 18297 1
20561 18261 18298 1
20562 18262 18263 1
20563 18262 18299 1
20564 18262 18308 1
20565 18263 18300 1
20566 18263 18301 1
20567 18263 18302 1
20568 18264 18303 1
20569 18265 18304 1
20570 18266 18305 1
20571 18309 18310 am
20572 18314 18309 am
20573 18309 18361 1
20574 18310 18311 am
20575 18310 18369 1
20576 18311 18312 am
20577 18311 18317 1
20578 18312 18313 am
20579 18312 18315 1
20580 18313 18314 am
20581 18313 18370 1
20582 18314 18362 1
20583 18315 18316 am
20584 18315 18321 am
20585 18316 18317 1
20586 18316 18318 am
20587 18317 18371 1
20588 18317 18372 1
20589 18318 18319 am
20590 18318 18331 am
20591 18319 18320 am
20592 18319 18328 am
20593 18320 18321 am
20594 18320 18325 1
20595 18321 18322 1
20596 18322 18323 1
20597 18322 18373 1
20598 18322 18374 1
20599 18323 18324 1
20600 18323 18375 1
20601 18323 18376 1
20602 18324 18325 1
20603 18324 18377 1
20604 18324 18378 1
20605 18325 18326 am
20606 18326 18327 am
20607 18326 18335 1
20608 18327 18328 am
20609 18327 18332 1
20610 18328 18329 am
20611 18329 18330 am
20612 18329 18349 am
20613 18330 18331 am
20614 18330 18347 1
20615 18331 18363 1
20616 18332 18333 1
20617 18332 18379 1
20618 18332 18408 1
20619 18333 18334 am
20620 18333 18339 am
20621 18334 18335 1
20622 18334 18336 am
20623 18335 18380 1
20624 18335 18409 1
20625 18336 18337 am
20626 18336 18367 1
20627 18337 18338 am
20628 18337 18343 1
20629 18338 18339 am
20630 18338 18340 1
20631 18339 18344 am
20632 18340 18341 1
20633 18340 18346 am
20634 18341 18342 1
20635 18341 18381 1
20636 18341 18382 1
20637 18342 18343 1
20638 18342 18383 1
20639 18342 18384 1
20640 18343 18385 1
20641 18343 18386 1
20642 18344 18345 am
20643 18344 18387 1
20644 18345 18346 am
20645 18345 18366 1
20646 18346 18388 1
20647 18347 18348 1
20648 18347 18389 1
20649 18347 18390 1
20650 18348 18349 am
20651 18348 18353 am
20652 18349 18350 am
20653 18350 18351 am
20654 18350 18391 1
20655 18351 18352 am
20656 18351 18360 am
20657 18352 18353 am
20658 18352 18357 am
20659 18353 18354 am
20660 18354 18355 am
20661 18354 18392 1
20662 18355 18356 am
20663 18355 18364 1
20664 18356 18357 am
20665 18356 18393 1
20666 18357 18358 am
20667 18358 18359 am
20668 18358 18368 1
20669 18359 18360 am
20670 18359 18394 1
20671 18360 18395 1
20672 18361 18396 1
20673 18362 18397 1
20674 18362 18398 1
20675 18362 18399 1
20676 18363 18400 1
20677 18364 18365 1
20678 18364 18401 1
20679 18364 18410 1
20680 18365 18402 1
20681 18365 18403 1
20682 18365 18404 1
20683 18366 18405 1
20684 18367 18406 1
20685 18368 18407 1
20686 18411 18412 am
20687 18416 18411 am
20688 18411 18463 1
20689 18412 18413 am
20690 18412 18471 1
20691 18413 18414 am
20692 18413 18419 1
20693 18414 18415 am
20694 18414 18417 1
20695 18415 18416 am
20696 18415 18472 1
20697 18416 18464 1
20698 18417 18418 am
20699 18417 18423 am
20700 18418 18419 1
20701 18418 18420 am
20702 18419 18473 1
20703 18419 18474 1
20704 18420 18421 am
20705 18420 18433 am
20706 18421 18422 am
20707 18421 18430 am
20708 18422 18423 am
20709 18422 18427 1
20710 18423 18424 1
20711 18424 18425 1
20712 18424 18475 1
20713 18424 18476 1
20714 18425 18426 1
20715 18425 18477 1
20716 18425 18478 1
20717 18426 18427 1
20718 18426 18479 1
20719 18426 18480 1
20720 18427 18428 am
20721 18428 18429 am
20722 18428 18437 1
20723 18429 18430 am
20724 18429 18434 1
20725 18430 18431 am
20726 18431 18432 am
20727 18431 18451 am
20728 18432 18433 am
20729 18432 18449 1
20730 18433 18465 1
20731 18434 18435 1
20732 18434 18481 1
20733 18434 18510 1
20734 18435 18436 am
20735 18435 18441 am
20736 18436 18437 1
20737 18436 18438 am
20738 18437 18482 1
20739 18437 18511 1
20740 18438 18439 am
20741 18438 18469 1
20742 18439 18440 am
20743 18439 18445 1
20744 18440 18441 am
20745 18440 18442 1
20746 18441 18446 am
20747 18442 18443 1
20748 18442 18448 am
20749 18443 18444 1
20750 18443 18483 1
20751 18443 18484 1
20752 18444 18445 1
20753 18444 18485 1
20754 18444 18486 1
20755 18445 18487 1
20756 18445 18488 1
20757 18446 18447 am
20758 18446 18489 1
20759 18447 18448 am
20760 18447 18468 1
20761 18448 18490 1
20762 18449 18450 1
20763 18449 18491 1
20764 18449 18492 1
20765 18450 18451 am
20766 18450 18455 am
20767 18451 18452 am
20768 18452 18453 am
20769 18452 18493 1
20770 18453 18454 am
20771 18453 18462 am
20772 18454 18455 am
20773 18454 18459 am
20774 18455 18456 am
20775 18456 18457 am
20776 18456 18494 1
20777 18457 18458 am
20778 18457 18466 1
20779 18458 18459 am
20780 18458 18495 1
20781 18459 18460 am
20782 18460 18461 am
20783 18460 18470 1
20784 18461 18462 am
20785 18461 18496 1
20786 18462 18497 1
20787 18463 18498 1
20788 18464 18499 1
20789 18464 18500 1
20790 18464 18501 1
20791 18465 18502 1
20792 18466 18467 1
20793 18466 18503 1
20794 18466 18512 1
20795 18467 18504 1
20796 18467 18505 1
20797 18467 18506 1
20798 18468 18507 1
20799 18469 18508 1
20800 18470 18509 1
20801 18513 18514 am
20802 18518 18513 am
20803 18513 18565 1
20804 18514 18515 am
20805 18514 18573 1
20806 18515 18516 am
20807 18515 18521 1
20808 18516 18517 am
20809 18516 18519 1
20810 18517 18518 am
20811 18517 18574 1
20812 18518 18566 1
20813 18519 18520 am
20814 18519 18525 am
20815 18520 18521 1
20816 18520 18522 am
20817 18521 18575 1
20818 18521 18576 1
20819 18522 18523 am
20820 18522 18535 am
20821 18523 18524 am
20822 18523 18532 am
20823 18524 18525 am
20824 18524 18529 1
20825 18525 18526 1
20826 18526 18527 1
20827 18526 18577 1
20828 18526 18578 1
20829 18527 18528 1
20830 18527 18579 1
20831 18527 18580 1
20832 18528 18529 1
20833 18528 18581 1
20834 18528 18582 1
20835 18529 18530 am
20836 18530 18531 am
20837 18530 18539 1
20838 18531 18532 am
20839 18531 18536 1
20840 18532 18533 am
20841 18533 18534 am
20842 18533 18553 am
20843 18534 18535 am
20844 18534 18551 1
20845 18535 18567 1
20846 18536 18537 1
20847 18536 18583 1
20848 18536 18612 1
20849 18537 18538 am
20850 18537 18543 am
20851 18538 18539 1
20852 18538 18540 am
20853 18539 18584 1
20854 18539 18613 1
20855 18540 18541 am
20856 18540 18571 1
20857 18541 18542 am
20858 18541 18547 1
20859 18542 18543 am
20860 18542 18544 1
20861 18543 18548 am
20862 18544 18545 1
20863 18544 18550 am
20864 18545 18546 1
20865 18545 18585 1
20866 18545 18586 1
20867 18546 18547 1
20868 18546 18587 1
20869 18546 18588 1
20870 18547 18589 1
20871 18547 18590 1
20872 18548 18549 am
20873 18548 18591 1
20874 18549 18550 am
20875 18549 18570 1
20876 18550 18592 1
20877 18551 18552 1
20878 18551 18593 1
20879 18551 18594 1
20880 18552 18553 am
20881 18552 18557 am
20882 18553 18554 am
20883 18554 18555 am
20884 18554 18595 1
20885 18555 18556 am
20886 18555 18564 am
20887 18556 18557 am
20888 18556 18561 am
20889 18557 18558 am
20890 18558 18559 am
20891 18558 18596 1
20892 18559 18560 am
20893 18559 18568 1
20894 18560 18561 am
20895 18560 18597 1
20896 18561 18562 am
20897 18562 18563 am
20898 18562 18572 1
20899 18563 18564 am
20900 18563 18598 1
20901 18564 18599 1
20902 18565 18600 1
20903 18566 18601 1
20904 18566 18602 1
20905 18566 18603 1
20906 18567 18604 1
20907 18568 18569 1
20908 18568 18605 1
20909 18568 18614 1
20910 18569 18606 1
20911 18569 18607 1
20912 18569 18608 1
20913 18570 18609 1
20914 18571 18610 1
20915 18572 18611 1
20916 18615 18616 am
20917 18620 18615 am
20918 18615 18667 1
20919 18616 18617 am
20920 18616 18675 1
20921 18617 18618 am
20922 18617 18623 1
20923 18618 18619 am
20924 18618 18621 1
20925 18619 18620 am
20926 18619 18676 1
20927 18620 18668 1
20928 18621 18622 am
20929 18621 18627 am
20930 18622 18623 1
20931 18622 18624 am
20932 18623 18677 1
20933 18623 18678 1
20934 18624 18625 am
20935 18624 18637 am
20936 18625 18626 am
20937 18625 18634 am
20938 18626 18627 am
20939 18626 18631 1
20940 18627 18628 1
20941 18628 18629 1
20942 18628 18679 1
20943 18628 18680 1
20944 18629 18630 1
20945 18629 18681 1
20946 18629 18682 1
20947 18630 18631 1
20948 18630 18683 1
20949 18630 18684 1
20950 18631 18632 am
20951 18632 18633 am
20952 18632 18641 1
20953 18633 18634 am
20954 18633 18638 1
20955 18634 18635 am
20956 18635 18636 am
20957 18635 18655 am
20958 18636 18637 am
20959 18636 18653 1
20960 18637 18669 1
20961 18638 18639 1
20962 18638 18685 1
20963 18638 18714 1
20964 18639 18640 am
20965 18639 18645 am
20966 18640 18641 1
20967 18640 18642 am
20968 18641 18686 1
20969 18641 18715 1
20970 18642 18643 am
20971 18642 18673 1
20972 18643 18644 am
20973 18643 18649 1
20974 18644 18645 am
20975 18644 18646 1
20976 18645 18650 am
20977 18646 18647 1
20978 18646 18652 am
20979 18647 18648 1
20980 18647 18687 1
20981 18647 18688 1
20982 18648 18649 1
20983 18648 18689 1
20984 18648 18690 1
20985 18649 18691 1
20986 18649 18692 1
20987 18650 18651 am
20988 18650 18693 1
20989 18651 18652 am
20990 18651 18672 1
20991 18652 18694 1
20992 18653 18654 1
20993 18653 18695 1
20994 18653 18696 1
20995 18654 18655 am
20996 18654 18659 am
20997 18655 18656 am
20998 18656 18657 am
20999 18656 18697 1
21000 18657 18658 am
21001 18657 18666 am
21002 18658 18659 am
21003 18658 18663 am
21004 18659 18660 am
21005 18660 18661 am
21006 18660 18698 1
21007 18661 18662 am
21008 18661 18670 1
21009 18662 18663 am
21010 18662 18699 1
21011 18663 18664 am
21012 18664 18665 am
21013 18664 18674 1
21014 18665 18666 am
21015 18665 18700 1
21016 18666 18701 1
21017 18667 18702 1
21018 18668 18703 1
21019 18668 18704 1
21020 18668 18705 1
21021 18669 18706 1
21022 18670 18671 1
21023 18670 18707 1
21024 18670 18716 1
21025 18671 18708 1
21026 18671 18709 1
21027 18671 18710 1
21028 18672 18711 1
21029 18673 18712 1
21030 18674 18713 1
21031 18717 18718 am
21032 18722 18717 am
21033 18717 18769 1
21034 18718 18719 am
21035 18718 18777 1
21036 18719 18720 am
21037 18719 18725 1
21038 18720 18721 am
21039 18720 18723 1
21040 18721 18722 am
21041 18721 18778 1
21042 18722 18770 1
21043 18723 18724 am
21044 18723 18729 am
21045 18724 18725 1
21046 18724 18726 am
21047 18725 18779 1
21048 18725 18780 1
21049 18726 18727 am
21050 18726 18739 am
21051 18727 18728 am
21052 18727 18736 am
21053 18728 18729 am
21054 18728 18733 1
21055 18729 18730 1
21056 18730 18731 1
21057 18730 18781 1
21058 18730 18782 1
21059 18731 18732 1
21060 18731 18783 1
21061 18731 18784 1
21062 18732 18733 1
21063 18732 18785 1
21064 18732 18786 1
21065 18733 18734 am
21066 18734 18735 am
21067 18734 18743 1
21068 18735 18736 am
21069 18735 18740 1
21070 18736 18737 am
21071 18737 18738 am
21072 18737 18757 am
21073 18738 18739 am
21074 18738 18755 1
21075 18739 18771 1
21076 18740 18741 1
21077 18740 18787 1
21078 18740 18816 1
21079 18741 18742 am
21080 18741 18747 am
21081 18742 18743 1
21082 18742 18744 am
21083 18743 18788 1
21084 18743 18817 1
21085 18744 18745 am
21086 18744 18775 1
21087 18745 18746 am
21088 18745 18751 1
21089 18746 18747 am
21090 18746 18748 1
21091 18747 18752 am
21092 18748 18749 1
21093 18748 18754 am
21094 18749 18750 1
21095 18749 18789 1
21096 18749 18790 1
21097 18750 18751 1
21098 18750 18791 1
21099 18750 18792 1
21100 18751 18793 1
21101 18751 18794 1
21102 18752 18753 am
21103 18752 18795 1
21104 18753 18754 am
21105 18753 18774 1
21106 18754 18796 1
21107 18755 18756 1
21108 18755 18797 1
21109 18755 18798 1
21110 18756 18757 am
21111 18756 18761 am
21112 18757 18758 am
21113 18758 18759 am
21114 18758 18799 1
21115 18759 18760 am
21116 18759 18768 am
21117 18760 18761 am
21118 18760 18765 am
21119 18761 18762 am
21120 18762 18763 am
21121 18762 18800 1
21122 18763 18764 am
21123 18763 18772 1
21124 18764 18765 am
21125 18764 18801 1
21126 18765 18766 am
21127 18766 18767 am
21128 18766 18776 1
21129 18767 18768 am
21130 18767 18802 1
21131 18768 18803 1
21132 18769 18804 1
21133 18770 18805 1
21134 18770 18806 1
21135 18770 18807 1
21136 18771 18808 1
21137 18772 18773 1
21138 18772 18809 1
21139 18772 18818 1
21140 18773 18810 1
21141 18773 18811 1
21142 18773 18812 1
21143 18774 18813 1
21144 18775 18814 1
21145 18776 18815 1
21146 18819 18820 am
21147 18824 18819 am
21148 18819 18871 1
21149 18820 18821 am
21150 18820 18879 1
21151 18821 18822 am
21152 18821 18827 1
21153 18822 18823 am
21154 18822 18825 1
21155 18823 18824 am
21156 18823 18880 1
21157 18824 18872 1
21158 18825 18826 am
21159 18825 18831 am
21160 18826 18827 1
21161 18826 18828 am
21162 18827 18881 1
21163 18827 18882 1
21164 18828 18829 am
21165 18828 18841 am
21166 18829 18830 am
21167 18829 18838 am
21168 18830 18831 am
21169 18830 18835 1
21170 18831 18832 1
21171 18832 18833 1
21172 18832 18883 1
21173 18832 18884 1
21174 18833 18834 1
21175 18833 18885 1
21176 18833 18886 1
21177 18834 18835 1
21178 18834 18887 1
21179 18834 18888 1
21180 18835 18836 am
21181 18836 18837 am
21182 18836 18845 1
21183 18837 18838 am
21184 18837 18842 1
21185 18838 18839 am
21186 18839 18840 am
21187 18839 18859 am
21188 18840 18841 am
21189 18840 18857 1
21190 18841 18873 1
21191 18842 18843 1
21192 18842 18889 1
21193 18842 18918 1
21194 18843 18844 am
21195 18843 18849 am
21196 18844 18845 1
21197 18844 18846 am
21198 18845 18890 1
21199 18845 18919 1
21200 18846 18847 am
21201 18846 18877 1
21202 18847 18848 am
21203 18847 18853 1
21204 18848 18849 am
21205 18848 18850 1
21206 18849 18854 am
21207 18850 18851 1
21208 18850 18856 am
21209 18851 18852 1
21210 18851 18891 1
21211 18851 18892 1
21212 18852 18853 1
21213 18852 18893 1
21214 18852 18894 1
21215 18853 18895 1
21216 18853 18896 1
21217 18854 18855 am
21218 18854 18897 1
21219 18855 18856 am
21220 18855 18876 1
21221 18856 18898 1
21222 18857 18858 1
21223 18857 18899 1
21224 18857 18900 1
21225 18858 18859 am
21226 18858 18863 am
21227 18859 18860 am
21228 18860 18861 am
21229 18860 18901 1
21230 18861 18862 am
21231 18861 18870 am
21232 18862 18863 am
21233 18862 18867 am
21234 18863 18864 am
21235 18864 18865 am
21236 18864 18902 1
21237 18865 18866 am
21238 18865 18874 1
21239 18866 18867 am
21240 18866 18903 1
21241 18867 18868 am
21242 18868 18869 am
21243 18868 18878 1
21244 18869 18870 am
21245 18869 18904 1
21246 18870 18905 1
21247 18871 18906 1
21248 18872 18907 1
21249 18872 18908 1
21250 18872 18909 1
21251 18873 18910 1
21252 18874 18875 1
21253 18874 18911 1
21254 18874 18920 1
21255 18875 18912 1
21256 18875 18913 1
21257 18875 18914 1
21258 18876 18915 1
21259 18877 18916 1
21260 18878 18917 1
21261 18921 18922 1
21262 18921 18926 1
21263 18921 19068 1
21264 18921 19069 1
21265 18923 18922 1
21266 18922 19070 1
21267 18922 19071 1
21268 18924 18923 1
21269 18923 18930 1
21270 18923 19072 1
21271 18925 18924 1
21272 18924 18927 1
21273 18924 19073 1
21274 18926 18925 1
21275 18925 19074 1
21276 18925 19075 1
21277 18928 18927 1
21278 18927 18934 1
21279 18927 19076 1
21280 18929 18928 1
21281 18928 18931 1
21282 18928 19077 1
21283 18930 18929 1
21284 18929 19078 1
21285 18929 19079 1
21286 18930 19080 1
21287 18930 19081 1
21288 18932 18931 1
21289 18933 18932 1
21290 18932 18938 1
21291 18932 19082 1
21292 18934 18933 1
21293 18933 18935 1
21294 18933 19083 1
21295 18934 19084 1
21296 18934 19085 1
21297 18936 18935 1
21298 18935 18945 2
21299 18937 18936 1
21300 18936 18942 1
21301 18938 18937 1
21302 18937 18939 1
21303 18938 18950 1
21304 18938 19086 1
21305 18940 18939 1
21306 18939 18952 1
21307 18941 18940 1
21308 18940 18949 1
21309 18942 18941 1
21310 18941 18946 1
21311 18942 18943 1
21312 18944 18943 1
21313 18943 19087 1
21314 18943 19088 1
21315 18945 18944 1
21316 18944 19089 1
21317 18944 19090 1
21318 18945 19091 1
21319 18947 18946 1
21320 18948 18947 1
21321 18947 18983 1
21322 18949 18948 1
21323 18948 18967 1
21324 18949 18965 1
21325 18951 18950 1
21326 18950 18956 2
21327 18952 18951 1
21328 18951 18953 1
21329 18951 19092 1
21330 18952 18966 1
21331 18954 18953 2
21332 18953 18960 1
21333 18955 18954 1
21334 18954 18957 1
21335 18956 18955 1
21336 18955 19093 1
21337 18955 19094 1
21338 18956 19095 1
21339 18958 18957 1
21340 18957 19096 1
21341 18957 19097 1
21342 18959 18958 1
21343 18958 19098 1
21344 18958 19099 1
21345 18960 18959 2
21346 18959 18964 1
21347 18960 18961 1
21348 18962 18961 1
21349 18961 19100 1
21350 18961 19101 1
21351 18963 18962 1
21352 18962 19037 1
21353 18962 19102 1
21354 18964 18963 1
21355 18963 19103 1
21356 18963 19104 1
21357 18964 19105 1
21358 18964 19106 1
21359 18966 18965 1
21360 18965 18969 1
21361 18966 19107 1
21362 18968 18967 1
21363 18967 18973 1
21364 18969 18968 1
21365 18968 18970 1
21366 18971 18970 1
21367 18970 19108 1
21368 18972 18971 1
21369 18971 18977 1
21370 18973 18972 1
21371 18972 18974 1
21372 18973 18982 1
21373 18975 18974 1
21374 18974 18984 1
21375 18976 18975 1
21376 18975 18981 1
21377 18977 18976 1
21378 18976 18978 1
21379 18977 19109 1
21380 18979 18978 1
21381 18978 18994 1
21382 18980 18979 1
21383 18979 18991 1
21384 18981 18980 1
21385 18980 18988 1
21386 18981 18986 1
21387 18983 18982 1
21388 18982 18985 1
21389 18983 19110 1
21390 18985 18984 1
21391 18984 18987 1
21392 18985 19003 1
21393 18987 18986 1
21394 18986 18990 1
21395 18987 19005 1
21396 18989 18988 1
21397 18988 19021 1
21398 18990 18989 1
21399 18989 19016 1
21400 18990 19014 1
21401 18992 18991 1
21402 18993 18992 1
21403 18992 18998 1
21404 18992 19111 1
21405 18994 18993 1
21406 18993 18995 1
21407 18993 19112 1
21408 18994 19040 1
21409 18994 19113 1
21410 18996 18995 1
21411 18995 19114 1
21412 18995 19115 1
21413 18997 18996 1
21414 18996 19116 1
21415 18996 19117 1
21416 18998 18997 1
21417 18997 19002 1
21418 18997 19118 1
21419 18998 18999 1
21420 18998 19119 1
21421 19000 18999 1
21422 18999 19120 1
21423 18999 19121 1
21424 19001 19000 1
21425 19000 19122 1
21426 19000 19123 1
21427 19002 19001 1
21428 19001 19124 1
21429 19001 19125 1
21430 19002 19126 1
21431 19004 19003 1
21432 19003 19009 1
21433 19005 19004 1
21434 19004 19006 1
21435 19005 19015 1
21436 19007 19006 1
21437 19008 19007 1
21438 19007 19013 1
21439 19007 19127 1
21440 19009 19008 1
21441 19008 19010 1
21442 19008 19128 1
21443 19011 19010 1
21444 19010 19129 1
21445 19010 19130 1
21446 19012 19011 1
21447 19011 19131 1
21448 19011 19132 1
21449 19013 19012 1
21450 19012 19133 1
21451 19012 19134 1
21452 19013 19135 1
21453 19013 19136 1
21454 19015 19014 1
21455 19014 19018 1
21456 19015 19137 1
21457 19017 19016 1
21458 19016 19019 1
21459 19018 19017 1
21460 19017 19022 1
21461 19018 19138 1
21462 19020 19019 1
21463 19019 19024 1
21464 19021 19020 1
21465 19020 19025 1
21466 19021 19139 1
21467 19023 19022 1
21468 19024 19023 1
21469 19023 19034 1
21470 19024 19027 1
21471 19026 19025 1
21472 19025 19031 1
21473 19025 19140 1
21474 19027 19026 1
21475 19026 19028 1
21476 19026 19141 1
21477 19027 19032 1
21478 19029 19028 1
21479 19028 19035 1
21480 19028 19142 1
21481 19030 19029 1
21482 19029 19143 1
21483 19029 19144 1
21484 19031 19030 1
21485 19030 19145 1
21486 19030 19146 1
21487 19031 19147 1
21488 19031 19148 1
21489 19033 19032 1
21490 19032 19036 1
21491 19034 19033 1
21492 19033 19044 1
21493 19034 19041 1
21494 19035 19036 1
21495 19035 19059 1
21496 19036 19055 1
21497 19037 19038 1
21498 19037 19039 1
21499 19037 19149 1
21500 19038 19150 1
21501 19038 19151 1
21502 19038 19152 1
21503 19039 19153 1
21504 19039 19154 1
21505 19039 19155 1
21506 19040 19156 1
21507 19042 19041 1
21508 19041 19157 1
21509 19043 19042 1
21510 19042 19158 1
21511 19044 19043 1
21512 19043 19048 1
21513 19044 19045 1
21514 19046 19045 1
21515 19045 19055 1
21516 19047 19046 1
21517 19046 19052 1
21518 19048 19047 1
21519 19047 19049 1
21520 19048 19159 1
21521 19050 19049 1
21522 19049 19160 1
21523 19051 19050 1
21524 19050 19161 1
21525 19052 19051 1
21526 19051 19058 1
21527 19052 19053 1
21528 19054 19053 1
21529 19053 19056 1
21530 19055 19054 1
21531 19054 19060 1
21532 19057 19056 1
21533 19056 19061 1
21534 19058 19057 1
21535 19057 19162 1
21536 19058 19163 1
21537 19060 19059 1
21538 19059 19164 1
21539 19060 19062 1
21540 19062 19061 1
21541 19061 19066 1
21542 19062 19063 1
21543 19064 19063 1
21544 19063 19165 1
21545 19063 19166 1
21546 19065 19064 1
21547 19064 19167 1
21548 19064 19168 1
21549 19066 19065 1
21550 19065 19169 1
21551 19065 19170 1
21552 19066 19067 2
21553 19171 19172 1
21554 19171 19176 1
21555 19171 19318 1
21556 19171 19319 1
21557 19173 19172 1
21558 19172 19320 1
21559 19172 19321 1
21560 19174 19173 1
21561 19173 19180 1
21562 19173 19322 1
21563 19175 19174 1
21564 19174 19177 1
21565 19174 19323 1
21566 19176 19175 1
21567 19175 19324 1
21568 19175 19325 1
21569 19178 19177 1
21570 19177 19184 1
21571 19177 19326 1
21572 19179 19178 1
21573 19178 19181 1
21574 19178 19327 1
21575 19180 19179 1
21576 19179 19328 1
21577 19179 19329 1
21578 19180 19330 1
21579 19180 19331 1
21580 19182 19181 1
21581 19183 19182 1
21582 19182 19188 1
21583 19182 19332 1
21584 19184 19183 1
21585 19183 19185 1
21586 19183 19333 1
21587 19184 19334 1
21588 19184 19335 1
21589 19186 19185 1
21590 19185 19195 2
21591 19187 19186 1
21592 19186 19192 1
21593 19188 19187 1
21594 19187 19189 1
21595 19188 19200 1
21596 19188 19336 1
21597 19190 19189 1
21598 19189 19202 1
21599 19191 19190 1
21600 19190 19199 1
21601 19192 19191 1
21602 19191 19196 1
21603 19192 19193 1
21604 19194 19193 1
21605 19193 19337 1
21606 19193 19338 1
21607 19195 19194 1
21608 19194 19339 1
21609 19194 19340 1
21610 19195 19341 1
21611 19197 19196 1
21612 19198 19197 1
21613 19197 19233 1
21614 19199 19198 1
21615 19198 19217 1
21616 19199 19215 1
21617 19201 19200 1
21618 19200 19206 2
21619 19202 19201 1
21620 19201 19203 1
21621 19201 19342 1
21622 19202 19216 1
21623 19204 19203 2
21624 19203 19210 1
21625 19205 19204 1
21626 19204 19207 1
21627 19206 19205 1
21628 19205 19343 1
21629 19205 19344 1
21630 19206 19345 1
21631 19208 19207 1
21632 19207 19346 1
21633 19207 19347 1
21634 19209 19208 1
21635 19208 19348 1
21636 19208 19349 1
21637 19210 19209 2
21638 19209 19214 1
21639 19210 19211 1
21640 19212 19211 1
21641 19211 19350 1
21642 19211 19351 1
21643 19213 19212 1
21644 19212 19287 1
21645 19212 19352 1
21646 19214 19213 1
21647 19213 19353 1
21648 19213 19354 1
21649 19214 19355 1
21650 19214 19356 1
21651 19216 19215 1
21652 19215 19219 1
21653 19216 19357 1
21654 19218 19217 1
21655 19217 19223 1
21656 19219 19218 1
21657 19218 19220 1
21658 19221 19220 1
21659 19220 19358 1
21660 19222 19221 1
21661 19221 19227 1
21662 19223 19222 1
21663 19222 19224 1
21664 19223 19232 1
21665 19225 19224 1
21666 19224 19234 1
21667 19226 19225 1
21668 19225 19231 1
21669 19227 19226 1
21670 19226 19228 1
21671 19227 19359 1
21672 19229 19228 1
21673 19228 19244 1
21674 19230 19229 1
21675 19229 19241 1
21676 19231 19230 1
21677 19230 19238 1
21678 19231 19236 1
21679 19233 19232 1
21680 19232 19235 1
21681 19233 19360 1
21682 19235 19234 1
21683 19234 19237 1
21684 19235 19253 1
21685 19237 19236 1
21686 19236 19240 1
21687 19237 19255 1
21688 19239 19238 1
21689 19238 19271 1
21690 19240 19239 1
21691 19239 19266 1
21692 19240 19264 1
21693 19242 19241 1
21694 19243 19242 1
21695 19242 19248 1
21696 19242 19361 1
21697 19244 19243 1
21698 19243 19245 1
21699 19243 19362 1
21700 19244 19290 1
21701 19244 19363 1
21702 19246 19245 1
21703 19245 19364 1
21704 19245 19365 1
21705 19247 19246 1
21706 19246 19366 1
21707 19246 19367 1
21708 19248 19247 1
21709 19247 19252 1
21710 19247 19368 1
21711 19248 19249 1
21712 19248 19369 1
21713 19250 19249 1
21714 19249 19370 1
21715 19249 19371 1
21716 19251 19250 1
21717 19250 19372 1
21718 19250 19373 1
21719 19252 19251 1
21720 19251 19374 1
21721 19251 19375 1
21722 19252 19376 1
21723 19254 19253 1
21724 19253 19259 1
21725 19255 19254 1
21726 19254 19256 1
21727 19255 19265 1
21728 19257 19256 1
21729 19258 19257 1
21730 19257 19263 1
21731 19257 19377 1
21732 19259 19258 1
21733 19258 19260 1
21734 19258 19378 1
21735 19261 19260 1
21736 19260 19379 1
21737 19260 19380 1
21738 19262 19261 1
21739 19261 19381 1
21740 19261 19382 1
21741 19263 19262 1
21742 19262 19383 1
21743 19262 19384 1
21744 19263 19385 1
21745 19263 19386 1
21746 19265 19264 1
21747 19264 19268 1
21748 19265 19387 1
21749 19267 19266 1
21750 19266 19269 1
21751 19268 19267 1
21752 19267 19272 1
21753 19268 19388 1
21754 19270 19269 1
21755 19269 19274 1
21756 19271 19270 1
21757 19270 19275 1
21758 19271 19389 1
21759 19273 19272 1
21760 19274 19273 1
21761 19273 19284 1
21762 19274 19277 1
21763 19276 19275 1
21764 19275 19281 1
21765 19275 19390 1
21766 19277 19276 1
21767 19276 19278 1
21768 19276 19391 1
21769 19277 19282 1
21770 19279 19278 1
21771 19278 19285 1
21772 19278 19392 1
21773 19280 19279 1
21774 19279 19393 1
21775 19279 19394 1
21776 19281 19280 1
21777 19280 19395 1
21778 19280 19396 1
21779 19281 19397 1
21780 19281 19398 1
21781 19283 19282 1
21782 19282 19286 1
21783 19284 19283 1
21784 19283 19294 1
21785 19284 19291 1
21786 19285 19286 1
21787 19285 19309 1
21788 19286 19305 1
21789 19287 19288 1
21790 19287 19289 1
21791 19287 19399 1
21792 19288 19400 1
21793 19288 19401 1
21794 19288 19402 1
21795 19289 19403 1
21796 19289 19404 1
21797 19289 19405 1
21798 19290 19406 1
21799 19292 19291 1
21800 19291 19407 1
21801 19293 19292 1
21802 19292 19408 1
21803 19294 19293 1
21804 19293 19298 1
21805 19294 19295 1
21806 19296 19295 1
21807 19295 19305 1
21808 19297 19296 1
21809 19296 19302 1
21810 19298 19297 1
21811 19297 19299 1
21812 19298 19409 1
21813 19300 19299 1
21814 19299 19410 1
21815 19301 19300 1
21816 19300 19411 1
21817 19302 19301 1
21818 19301 19308 1
21819 19302 19303 1
21820 19304 19303 1
21821 19303 19306 1
21822 19305 19304 1
21823 19304 19310 1
21824 19307 19306 1
21825 19306 19311 1
21826 19308 19307 1
21827 19307 19412 1
21828 19308 19413 1
21829 19310 19309 1
21830 19309 19414 1
21831 19310 19312 1
21832 19312 19311 1
21833 19311 19316 1
21834 19312 19313 1
21835 19314 19313 1
21836 19313 19415 1
21837 19313 19416 1
21838 19315 19314 1
21839 19314 19417 1
21840 19314 19418 1
21841 19316 19315 1
21842 19315 19419 1
21843 19315 19420 1
21844 19316 19317 2
21845 19421 19422 1
21846 19421 19426 1
21847 19421 19568 1
21848 19421 19569 1
21849 19423 19422 1
21850 19422 19570 1
21851 19422 19571 1
21852 19424 19423 1
21853 19423 19430 1
21854 19423 19572 1
21855 19425 19424 1
21856 19424 19427 1
21857 19424 19573 1
21858 19426 19425 1
21859 19425 19574 1
21860 19425 19575 1
21861 19428 19427 1
21862 19427 19434 1
21863 19427 19576 1
21864 19429 19428 1
21865 19428 19431 1
21866 19428 19577 1
21867 19430 19429 1
21868 19429 19578 1
21869 19429 19579 1
21870 19430 19580 1
21871 19430 19581 1
21872 19432 19431 1
21873 19433 19432 1
21874 19432 19438 1
21875 19432 19582 1
21876 19434 19433 1
21877 19433 19435 1
21878 19433 19583 1
21879 19434 19584 1
21880 19434 19585 1
21881 19436 19435 1
21882 19435 19445 2
21883 19437 19436 1
21884 19436 19442 1
21885 19438 19437 1
21886 19437 19439 1
21887 19438 19450 1
21888 19438 19586 1
21889 19440 19439 1
21890 19439 19452 1
21891 19441 19440 1
21892 19440 19449 1
21893 19442 19441 1
21894 19441 19446 1
21895 19442 19443 1
21896 19444 19443 1
21897 19443 19587 1
21898 19443 19588 1
21899 19445 19444 1
21900 19444 19589 1
21901 19444 19590 1
21902 19445 19591 1
21903 19447 19446 1
21904 19448 19447 1
21905 19447 19483 1
21906 19449 19448 1
21907 19448 19467 1
21908 19449 19465 1
21909 19451 19450 1
21910 19450 19456 2
21911 19452 19451 1
21912 19451 19453 1
21913 19451 19592 1
21914 19452 19466 1
21915 19454 19453 2
21916 19453 19460 1
21917 19455 19454 1
21918 19454 19457 1
21919 19456 19455 1
21920 19455 19593 1
21921 19455 19594 1
21922 19456 19595 1
21923 19458 19457 1
21924 19457 19596 1
21925 19457 19597 1
21926 19459 19458 1
21927 19458 19598 1
21928 19458 19599 1
21929 19460 19459 2
21930 19459 19464 1
21931 19460 19461 1
21932 19462 19461 1
21933 19461 19600 1
21934 19461 19601 1
21935 19463 19462 1
21936 19462 19537 1
21937 19462 19602 1
21938 19464 19463 1
21939 19463 19603 1
21940 19463 19604 1
21941 19464 19605 1
21942 19464 19606 1
21943 19466 19465 1
21944 19465 19469 1
21945 19466 19607 1
21946 19468 19467 1
21947 19467 19473 1
21948 19469 19468 1
21949 19468 19470 1
21950 19471 19470 1
21951 19470 19608 1
21952 19472 19471 1
21953 19471 19477 1
21954 19473 19472 1
21955 19472 19474 1
21956 19473 19482 1
21957 19475 19474 1
21958 19474 19484 1
21959 19476 19475 1
21960 19475 19481 1
21961 19477 19476 1
21962 19476 19478 1
21963 19477 19609 1
21964 19479 19478 1
21965 19478 19494 1
21966 19480 19479 1
21967 19479 19491 1
21968 19481 19480 1
21969 19480 19488 1
21970 19481 19486 1
21971 19483 19482 1
21972 19482 19485 1
21973 19483 19610 1
21974 19485 19484 1
21975 19484 19487 1
21976 19485 19503 1
21977 19487 19486 1
21978 19486 19490 1
21979 19487 19505 1
21980 19489 19488 1
21981 19488 19521 1
21982 19490 19489 1
21983 19489 19516 1
21984 19490 19514 1
21985 19492 19491 1
21986 19493 19492 1
21987 19492 19498 1
21988 19492 19611 1
21989 19494 19493 1
21990 19493 19495 1
21991 19493 19612 1
21992 19494 19540 1
21993 19494 19613 1
21994 19496 19495 1
21995 19495 19614 1
21996 19495 19615 1
21997 19497 19496 1
21998 19496 19616 1
21999 19496 19617 1
22000 19498 19497 1
22001 19497 19502 1
22002 19497 19618 1
22003 19498 19499 1
22004 19498 19619 1
22005 19500 19499 1
22006 19499 19620 1
22007 19499 19621 1
22008 19501 19500 1
22009 19500 19622 1
22010 19500 19623 1
22011 19502 19501 1
22012 19501 19624 1
22013 19501 19625 1
22014 19502 19626 1
22015 19504 19503 1
22016 19503 19509 1
22017 19505 19504 1
22018 19504 19506 1
22019 19505 19515 1
22020 19507 19506 1
22021 19508 19507 1
22022 19507 19513 1
22023 19507 19627 1
22024 19509 19508 1
22025 19508 19510 1
22026 19508 19628 1
22027 19511 19510 1
22028 19510 19629 1
22029 19510 19630 1
22030 19512 19511 1
22031 19511 19631 1
22032 19511 19632 1
22033 19513 19512 1
22034 19512 19633 1
22035 19512 19634 1
22036 19513 19635 1
22037 19513 19636 1
22038 19515 19514 1
22039 19514 19518 1
22040 19515 19637 1
22041 19517 19516 1
22042 19516 19519 1
22043 19518 19517 1
22044 19517 19522 1
22045 19518 19638 1
22046 19520 19519 1
22047 19519 19524 1
22048 19521 19520 1
22049 19520 19525 1
22050 19521 19639 1
22051 19523 19522 1
22052 19524 19523 1
22053 19523 19534 1
22054 19524 19527 1
22055 19526 19525 1
22056 19525 19531 1
22057 19525 19640 1
22058 19527 19526 1
22059 19526 19528 1
22060 19526 19641 1
22061 19527 19532 1
22062 19529 19528 1
22063 19528 19535 1
22064 19528 19642 1
22065 19530 19529 1
22066 19529 19643 1
22067 19529 19644 1
22068 19531 19530 1
22069 19530 19645 1
22070 19530 19646 1
22071 19531 19647 1
22072 19531 19648 1
22073 19533 19532 1
22074 19532 19536 1
22075 19534 19533 1
22076 19533 19544 1
22077 19534 19541 1
22078 19535 19536 1
22079 19535 19559 1
22080 19536 19555 1
22081 19537 19538 1
22082 19537 19539 1
22083 19537 19649 1
22084 19538 19650 1
22085 19538 19651 1
22086 19538 19652 1
22087 19539 19653 1
22088 19539 19654 1
22089 19539 19655 1
22090 19540 19656 1
22091 19542 19541 1
22092 19541 19657 1
22093 19543 19542 1
22094 19542 19658 1
22095 19544 19543 1
22096 19543 19548 1
22097 19544 19545 1
22098 19546 19545 1
22099 19545 19555 1
22100 19547 19546 1
22101 19546 19552 1
22102 19548 19547 1
22103 19547 19549 1
22104 19548 19659 1
22105 19550 19549 1
22106 19549 19660 1
22107 19551 19550 1
22108 19550 19661 1
22109 19552 19551 1
22110 19551 19558 1
22111 19552 19553 1
22112 19554 19553 1
22113 19553 19556 1
22114 19555 19554 1
22115 19554 19560 1
22116 19557 19556 1
22117 19556 19561 1
22118 19558 19557 1
22119 19557 19662 1
22120 19558 19663 1
22121 19560 19559 1
22122 19559 19664 1
22123 19560 19562 1
22124 19562 19561 1
22125 19561 19566 1
22126 19562 19563 1
22127 19564 19563 1
22128 19563 19665 1
22129 19563 19666 1
22130 19565 19564 1
22131 19564 19667 1
22132 19564 19668 1
22133 19566 19565 1
22134 19565 19669 1
22135 19565 19670 1
22136 19566 19567 2
22137 19671 19672 1
22138 19671 19676 1
22139 19671 19818 1
22140 19671 19819 1
22141 19673 19672 1
22142 19672 19820 1
22143 19672 19821 1
22144 19674 19673 1
22145 19673 19680 1
22146 19673 19822 1
22147 19675 19674 1
22148 19674 19677 1
22149 19674 19823 1
22150 19676 19675 1
22151 19675 19824 1
22152 19675 19825 1
22153 19678 19677 1
22154 19677 19684 1
22155 19677 19826 1
22156 19679 19678 1
22157 19678 19681 1
22158 19678 19827 1
22159 19680 19679 1
22160 19679 19828 1
22161 19679 19829 1
22162 19680 19830 1
22163 19680 19831 1
22164 19682 19681 1
22165 19683 19682 1
22166 19682 19688 1
22167 19682 19832 1
22168 19684 19683 1
22169 19683 19685 1
22170 19683 19833 1
22171 19684 19834 1
22172 19684 19835 1
22173 19686 19685 1
22174 19685 19695 2
22175 19687 19686 1
22176 19686 19692 1
22177 19688 19687 1
22178 19687 19689 1
22179 19688 19700 1
22180 19688 19836 1
22181 19690 19689 1
22182 19689 19702 1
22183 19691 19690 1
22184 19690 19699 1
22185 19692 19691 1
22186 19691 19696 1
22187 19692 19693 1
22188 19694 19693 1
22189 19693 19837 1
22190 19693 19838 1
22191 19695 19694 1
22192 19694 19839 1
22193 19694 19840 1
22194 19695 19841 1
22195 19697 19696 1
22196 19698 19697 1
22197 19697 19733 1
22198 19699 19698 1
22199 19698 19717 1
22200 19699 19715 1
22201 19701 19700 1
22202 19700 19706 2
22203 19702 19701 1
22204 19701 19703 1
22205 19701 19842 1
22206 19702 19716 1
22207 19704 19703 2
22208 19703 19710 1
22209 19705 19704 1
22210 19704 19707 1
22211 19706 19705 1
22212 19705 19843 1
22213 19705 19844 1
22214 19706 19845 1
22215 19708 19707 1
22216 19707 19846 1
22217 19707 19847 1
22218 19709 19708 1
22219 19708 19848 1
22220 19708 19849 1
22221 19710 19709 2
22222 19709 19714 1
22223 19710 19711 1
22224 19712 19711 1
22225 19711 19850 1
22226 19711 19851 1
22227 19713 19712 1
22228 19712 19787 1
22229 19712 19852 1
22230 19714 19713 1
22231 19713 19853 1
22232 19713 19854 1
22233 19714 19855 1
22234 19714 19856 1
22235 19716 19715 1
22236 19715 19719 1
22237 19716 19857 1
22238 19718 19717 1
22239 19717 19723 1
22240 19719 19718 1
22241 19718 19720 1
22242 19721 19720 1
22243 19720 19858 1
22244 19722 19721 1
22245 19721 19727 1
22246 19723 19722 1
22247 19722 19724 1
22248 19723 19732 1
22249 19725 19724 1
22250 19724 19734 1
22251 19726 19725 1
22252 19725 19731 1
22253 19727 19726 1
22254 19726 19728 1
22255 19727 19859 1
22256 19729 19728 1
22257 19728 19744 1
22258 19730 19729 1
22259 19729 19741 1
22260 19731 19730 1
22261 19730 19738 1
22262 19731 19736 1
22263 19733 19732 1
22264 19732 19735 1
22265 19733 19860 1
22266 19735 19734 1
22267 19734 19737 1
22268 19735 19753 1
22269 19737 19736 1
22270 19736 19740 1
22271 19737 19755 1
22272 19739 19738 1
22273 19738 19771 1
22274 19740 19739 1
22275 19739 19766 1
22276 19740 19764 1
22277 19742 19741 1
22278 19743 19742 1
22279 19742 19748 1
22280 19742 19861 1
22281 19744 19743 1
22282 19743 19745 1
22283 19743 19862 1
22284 19744 19790 1
22285 19744 19863 1
22286 19746 19745 1
22287 19745 19864 1
22288 19745 19865 1
22289 19747 19746 1
22290 19746 19866 1
22291 19746 19867 1
22292 19748 19747 1
22293 19747 19752 1
22294 19747 19868 1
22295 19748 19749 1
22296 19748 19869 1
22297 19750 19749 1
22298 19749 19870 1
22299 19749 19871 1
22300 19751 19750 1
22301 19750 19872 1
22302 19750 19873 1
22303 19752 19751 1
22304 19751 19874 1
22305 19751 19875 1
22306 19752 19876 1
22307 19754 19753 1
22308 19753 19759 1
22309 19755 19754 1
22310 19754 19756 1
22311 19755 19765 1
22312 19757 19756 1
22313 19758 19757 1
22314 19757 19763 1
22315 19757 19877 1
22316 19759 19758 1
22317 19758 19760 1
22318 19758 19878 1
22319 19761 19760 1
22320 19760 19879 1
22321 19760 19880 1
22322 19762 19761 1
22323 19761 19881 1
22324 19761 19882 1
22325 19763 19762 1
22326 19762 19883 1
22327 19762 19884 1
22328 19763 19885 1
22329 19763 19886 1
22330 19765 19764 1
22331 19764 19768 1
22332 19765 19887 1
22333 19767 19766 1
22334 19766 19769 1
22335 19768 19767 1
22336 19767 19772 1
22337 19768 19888 1
22338 19770 19769 1
22339 19769 19774 1
22340 19771 19770 1
22341 19770 19775 1
22342 19771 19889 1
22343 19773 19772 1
22344 19774 19773 1
22345 19773 19784 1
22346 19774 19777 1
22347 19776 19775 1
22348 19775 19781 1
22349 19775 19890 1
22350 19777 19776 1
22351 19776 19778 1
22352 19776 19891 1
22353 19777 19782 1
22354 19779 19778 1
22355 19778 19785 1
22356 19778 19892 1
22357 19780 19779 1
22358 19779 19893 1
22359 19779 19894 1
22360 19781 19780 1
22361 19780 19895 1
22362 19780 19896 1
22363 19781 19897 1
22364 19781 19898 1
22365 19783 19782 1
22366 19782 19786 1
22367 19784 19783 1
22368 19783 19794 1
22369 19784 19791 1
22370 19785 19786 1
22371 19785 19809 1
22372 19786 19805 1
22373 19787 19788 1
22374 19787 19789 1
22375 19787 19899 1
22376 19788 19900 1
22377 19788 19901 1
22378 19788 19902 1
22379 19789 19903 1
22380 19789 19904 1
22381 19789 19905 1
22382 19790 19906 1
22383 19792 19791 1
22384 19791 19907 1
22385 19793 19792 1
22386 19792 19908 1
22387 19794 19793 1
22388 19793 19798 1
22389 19794 19795 1
22390 19796 19795 1
22391 19795 19805 1
22392 19797 19796 1
22393 19796 19802 1
22394 19798 19797 1
22395 19797 19799 1
22396 19798 19909 1
22397 19800 19799 1
22398 19799 19910 1
22399 19801 19800 1
22400 19800 19911 1
22401 19802 19801 1
22402 19801 19808 1
22403 19802 19803 1
22404 19804 19803 1
22405 19803 19806 1
22406 19805 19804 1
22407 19804 19810 1
22408 19807 19806 1
22409 19806 19811 1
22410 19808 19807 1
22411 19807 19912 1
22412 19808 19913 1
22413 19810 19809 1
22414 19809 19914 1
22415 19810 19812 1
22416 19812 19811 1
22417 19811 19816 1
22418 19812 19813 1
22419 19814 19813 1
22420 19813 19915 1
22421 19813 19916 1
22422 19815 19814 1
22423 19814 19917 1
22424 19814 19918 1
22425 19816 19815 1
22426 19815 19919 1
22427 19815 19920 1
22428 19816 19817 2
22429 19921 19922 1
22430 19921 19926 1
22431 19921 20068 1
22432 19921 20069 1
22433 19923 19922 1
22434 19922 20070 1
22435 19922 20071 1
22436 19924 19923 1
22437 19923 19930 1
22438 19923 20072 1
22439 19925 19924 1
22440 19924 19927 1
22441 19924 20073 1
22442 19926 19925 1
22443 19925 20074 1
22444 19925 20075 1
22445 19928 19927 1
22446 19927 19934 1
22447 19927 20076 1
22448 19929 19928 1
22449 19928 19931 1
22450 19928 20077 1
22451 19930 19929 1
22452 19929 20078 1
22453 19929 20079 1
22454 19930 20080 1
22455 19930 20081 1
22456 19932 19931 1
22457 19933 19932 1
22458 19932 19938 1
22459 19932 20082 1
22460 19934 19933 1
22461 19933 19935 1
22462 19933 20083 1
22463 19934 20084 1
22464 19934 20085 1
22465 19936 19935 1
22466 19935 19945 2
22467 19937 19936 1
22468 19936 19942 1
22469 19938 19937 1
22470 19937 19939 1
22471 19938 19950 1
22472 19938 20086 1
22473 19940 19939 1
22474 19939 19952 1
22475 19941 19940 1
22476 19940 19949 1
22477 19942 19941 1
22478 19941 19946 1
22479 19942 19943 1
22480 19944 19943 1
22481 19943 20087 1
22482 19943 20088 1
22483 19945 19944 1
22484 19944 20089 1
22485 19944 20090 1
22486 19945 20091 1
22487 19947 19946 1
22488 19948 19947 1
22489 19947 19983 1
22490 19949 19948 1
22491 19948 19967 1
22492 19949 19965 1
22493 19951 19950 1
22494 19950 19956 2
22495 19952 19951 1
22496 19951 19953 1
22497 19951 20092 1
22498 19952 19966 1
22499 19954 19953 2
22500 19953 19960 1
22501 19955 19954 1
22502 19954 19957 1
22503 19956 19955 1
22504 19955 20093 1
22505 19955 20094 1
22506 19956 20095 1
22507 19958 19957 1
22508 19957 20096 1
22509 19957 20097 1
22510 19959 19958 1
22511 19958 20098 1
22512 19958 20099 1
22513 19960 19959 2
22514 19959 19964 1
22515 19960 19961 1
22516 19962 19961 1
22517 19961 20100 1
22518 19961 20101 1
22519 19963 19962 1
22520 19962 20037 1
22521 19962 20102 1
22522 19964 19963 1
22523 19963 20103 1
22524 19963 20104 1
22525 19964 20105 1
22526 19964 20106 1
22527 19966 19965 1
22528 19965 19969 1
22529 19966 20107 1
22530 19968 19967 1
22531 19967 19973 1
22532 19969 19968 1
22533 19968 19970 1
22534 19971 19970 1
22535 19970 20108 1
22536 19972 19971 1
22537 19971 19977 1
22538 19973 19972 1
22539 19972 19974 1
22540 19973 19982 1
22541 19975 19974 1
22542 19974 19984 1
22543 19976 19975 1
22544 19975 19981 1
22545 19977 19976 1
22546 19976 19978 1
22547 19977 20109 1
22548 19979 19978 1
22549 19978 19994 1
22550 19980 19979 1
22551 19979 19991 1
22552 19981 19980 1
22553 19980 19988 1
22554 19981 19986 1
22555 19983 19982 1
22556 19982 19985 1
22557 19983 20110 1
22558 19985 19984 1
22559 19984 19987 1
22560 19985 20003 1
22561 19987 19986 1
22562 19986 19990 1
22563 19987 20005 1
22564 19989 19988 1
22565 19988 20021 1
22566 19990 19989 1
22567 19989 20016 1
22568 19990 20014 1
22569 19992 19991 1
22570 19993 19992 1
22571 19992 19998 1
22572 19992 20111 1
22573 19994 19993 1
22574 19993 19995 1
22575 19993 20112 1
22576 19994 20040 1
22577 19994 20113 1
22578 19996 19995 1
22579 19995 20114 1
22580 19995 20115 1
22581 19997 19996 1
22582 19996 20116 1
22583 19996 20117 1
22584 19998 19997 1
22585 19997 20002 1
22586 19997 20118 1
22587 19998 19999 1
22588 19998 20119 1
22589 20000 19999 1
22590 19999 20120 1
22591 19999 20121 1
22592 20001 20000 1
22593 20000 20122 1
22594 20000 20123 1
22595 20002 20001 1
22596 20001 20124 1
22597 20001 20125 1
22598 20002 20126 1
22599 20004 20003 1
22600 20003 20009 1
22601 20005 20004 1
22602 20004 20006 1
22603 20005 20015 1
22604 20007 20006 1
22605 20008 20007 1
22606 20007 20013 1
22607 20007 20127 1
22608 20009 20008 1
22609 20008 20010 1
22610 20008 20128 1
22611 20011 20010 1
22612 20010 20129 1
22613 20010 20130 1
22614 20012 20011 1
22615 20011 20131 1
22616 20011 20132 1
22617 20013 20012 1
22618 20012 20133 1
22619 20012 20134 1
22620 20013 20135 1
22621 20013 20136 1
22622 20015 20014 1
22623 20014 20018 1
22624 20015 20137 1
22625 20017 20016 1
22626 20016 20019 1
22627 20018 20017 1
22628 20017 20022 1
22629 20018 20138 1
22630 20020 20019 1
22631 20019 20024 1
22632 20021 20020 1
22633 20020 20025 1
22634 20021 20139 1
22635 20023 20022 1
22636 20024 20023 1
22637 20023 20034 1
22638 20024 20027 1
22639 20026 20025 1
22640 20025 20031 1
22641 20025 20140 1
22642 20027 20026 1
22643 20026 20028 1
22644 20026 20141 1
22645 20027 20032 1
22646 20029 20028 1
22647 20028 20035 1
22648 20028 20142 1
22649 20030 20029 1
22650 20029 20143 1
22651 20029 20144 1
22652 20031 20030 1
22653 20030 20145 1
22654 20030 20146 1
22655 20031 20147 1
22656 20031 20148 1
22657 20033 20032 1
22658 20032 20036 1
22659 20034 20033 1
22660 20033 20044 1
22661 20034 20041 1
22662 20035 20036 1
22663 20035 20059 1
22664 20036 20055 1
22665 20037 20038 1
22666 20037 20039 1
22667 20037 20149 1
22668 20038 20150 1
22669 20038 20151 1
22670 20038 20152 1
22671 20039 20153 1
22672 20039 20154 1
22673 20039 20155 1
22674 20040 20156 1
22675 20042 20041 1
22676 20041 20157 1
22677 20043 20042 1
22678 20042 20158 1
22679 20044 20043 1
22680 20043 20048 1
22681 20044 20045 1
22682 20046 20045 1
22683 20045 20055 1
22684 20047 20046 1
22685 20046 20052 1
22686 20048 20047 1
22687 20047 20049 1
22688 20048 20159 1
22689 20050 20049 1
22690 20049 20160 1
22691 20051 20050 1
22692 20050 20161 1
22693 20052 20051 1
22694 20051 20058 1
22695 20052 20053 1
22696 20054 20053 1
22697 20053 20056 1
22698 20055 20054 1
22699 20054 20060 1
22700 20057 20056 1
22701 20056 20061 1
22702 20058 20057 1
22703 20057 20162 1
22704 20058 20163 1
22705 20060 20059 1
22706 20059 20164 1
22707 20060 20062 1
22708 20062 20061 1
22709 20061 20066 1
22710 20062 20063 1
22711 20064 20063 1
22712 20063 20165 1
22713 20063 20166 1
22714 20065 20064 1
22715 20064 20167 1
22716 20064 20168 1
22717 20066 20065 1
22718 20065 20169 1
22719 20065 20170 1
22720 20066 20067 2
22721 20171 20172 1
22722 20171 20176 1
22723 20171 20318 1
22724 20171 20319 1
22725 20173 20172 1
22726 20172 20320 1
22727 20172 20321 1
22728 20174 20173 1
22729 20173 20180 1
22730 20173 20322 1
22731 20175 20174 1
22732 20174 20177 1
22733 20174 20323 1
22734 20176 20175 1
22735 20175 20324 1
22736 20175 20325 1
22737 20178 20177 1
22738 20177 20184 1
22739 20177 20326 1
22740 20179 20178 1
22741 20178 20181 1
22742 20178 20327 1
22743 20180 20179 1
22744 20179 20328 1
22745 20179 20329 1
22746 20180 20330 1
22747 20180 20331 1
22748 20182 20181 1
22749 20183 20182 1
22750 20182 20188 1
22751 20182 20332 1
22752 20184 20183 1
22753 20183 20185 1
22754 20183 20333 1
22755 20184 20334 1
22756 20184 20335 1
22757 20186 20185 1
22758 20185 20195 2
22759 20187 20186 1
22760 20186 20192 1
22761 20188 20187 1
22762 20187 20189 1
22763 20188 20200 1
22764 20188 20336 1
22765 20190 20189 1
22766 20189 20202 1
22767 20191 20190 1
22768 20190 20199 1
22769 20192 20191 1
22770 20191 20196 1
22771 20192 20193 1
22772 20194 20193 1
22773 20193 20337 1
22774 20193 20338 1
22775 20195 20194 1
22776 20194 20339 1
22777 20194 20340 1
22778 20195 20341 1
22779 20197 20196 1
22780 20198 20197 1
22781 20197 20233 1
22782 20199 20198 1
22783 20198 20217 1
22784 20199 20215 1
22785 20201 20200 1
22786 20200 20206 2
22787 20202 20201 1
22788 20201 20203 1
22789 20201 20342 1
22790 20202 20216 1
22791 20204 20203 2
22792 20203 20210 1
22793 20205 20204 1
22794 20204 20207 1
22795 20206 20205 1
22796 20205 20343 1
22797 20205 20344 1
22798 20206 20345 1
22799 20208 20207 1
22800 20207 20346 1
22801 20207 20347 1
22802 20209 20208 1
22803 20208 20348 1
22804 20208 20349 1
22805 20210 20209 2
22806 20209 20214 1
22807 20210 20211 1
22808 20212 20211 1
22809 20211 20350 1
22810 20211 20351 1
22811 20213 20212 1
22812 20212 20287 1
22813 20212 20352 1
22814 20214 20213 1
22815 20213 20353 1
22816 20213 20354 1
22817 20214 20355 1
22818 20214 20356 1
22819 20216 20215 1
22820 20215 20219 1
22821 20216 20357 1
22822 20218 20217 1
22823 20217 20223 1
22824 20219 20218 1
22825 20218 20220 1
22826 20221 20220 1
22827 20220 20358 1
22828 20222 20221 1
22829 20221 20227 1
22830 20223 20222 1
22831 20222 20224 1
22832 20223 20232 1
22833 20225 20224 1
22834 20224 20234 1
22835 20226 20225 1
22836 20225 20231 1
22837 20227 20226 1
22838 20226 20228 1
22839 20227 20359 1
22840 20229 20228 1
22841 20228 20244 1
22842 20230 20229 1
22843 20229 20241 1
22844 20231 20230 1
22845 20230 20238 1
22846 20231 20236 1
22847 20233 20232 1
22848 20232 20235 1
22849 20233 20360 1
22850 20235 20234 1
22851 20234 20237 1
22852 20235 20253 1
22853 20237 20236 1
22854 20236 20240 1
22855 20237 20255 1
22856 20239 20238 1
22857 20238 20271 1
22858 20240 20239 1
22859 20239 20266 1
22860 20240 20264 1
22861 20242 20241 1
22862 20243 20242 1
22863 20242 20248 1
22864 20242 20361 1
22865 20244 20243 1
22866 20243 20245 1
22867 20243 20362 1
22868 20244 20290 1
22869 20244 20363 1
22870 20246 20245 1
22871 20245 20364 1
22872 20245 20365 1
22873 20247 20246 1
22874 20246 20366 1
22875 20246 20367 1
22876 20248 20247 1
22877 20247 20252 1
22878 20247 20368 1
22879 20248 20249 1
22880 20248 20369 1
22881 20250 20249 1
22882 20249 20370 1
22883 20249 20371 1
22884 20251 20250 1
22885 20250 20372 1
22886 20250 20373 1
22887 20252 20251 1
22888 20251 20374 1
22889 20251 20375 1
22890 20252 20376 1
22891 20254 20253 1
22892 20253 20259 1
22893 20255 20254 1
22894 20254 20256 1
22895 20255 20265 1
22896 20257 20256 1
22897 20258 20257 1
22898 20257 20263 1
22899 20257 20377 1
22900 20259 20258 1
22901 20258 20260 1
22902 20258 20378 1
22903 20261 20260 1
22904 20260 20379 1
22905 20260 20380 1
22906 20262 20261 1
22907 20261 20381 1
22908 20261 20382 1
22909 20263 20262 1
22910 20262 20383 1
22911 20262 20384 1
22912 20263 20385 1
22913 20263 20386 1
22914 20265 20264 1
22915 20264 20268 1
22916 20265 20387 1
22917 20267 20266 1
22918 20266 20269 1
22919 20268 20267 1
22920 20267 20272 1
22921 20268 20388 1
22922 20270 20269 1
22923 20269 20274 1
22924 20271 20270 1
22925 20270 20275 1
22926 20271 20389 1
22927 20273 20272 1
22928 20274 20273 1
22929 20273 20284 1
22930 20274 20277 1
22931 20276 20275 1
22932 20275 20281 1
22933 20275 20390 1
22934 20277 20276 1
22935 20276 20278 1
22936 20276 20391 1
22937 20277 20282 1
22938 20279 20278 1
22939 20278 20285 1
22940 20278 20392 1
22941 20280 20279 1
22942 20279 20393 1
22943 20279 20394 1
22944 20281 20280 1
22945 20280 20395 1
22946 20280 20396 1
22947 20281 20397 1
22948 20281 20398 1
22949 20283 20282 1
22950 20282 20286 1
22951 20284 20283 1
22952 20283 20294 1
22953 20284 20291 1
22954 20285 20286 1
22955 20285 20309 1
22956 20286 20305 1
22957 20287 20288 1
22958 20287 20289 1
22959 20287 20399 1
22960 20288 20400 1
22961 20288 20401 1
22962 20288 20402 1
22963 20289 20403 1
22964 20289 20404 1
22965 20289 20405 1
22966 20290 20406 1
22967 20292 20291 1
22968 20291 20407 1
22969 20293 20292 1
22970 20292 20408 1
22971 20294 20293 1
22972 20293 20298 1
22973 20294 20295 1
22974 20296 20295 1
22975 20295 20305 1
22976 20297 20296 1
22977 20296 20302 1
22978 20298 20297 1
22979 20297 20299 1
22980 20298 20409 1
22981 20300 20299 1
22982 20299 20410 1
22983 20301 20300 1
22984 20300 20411 1
22985 20302 20301 1
22986 20301 20308 1
22987 20302 20303 1
22988 20304 20303 1
22989 20303 20306 1
22990 20305 20304 1
22991 20304 20310 1
22992 20307 20306 1
22993 20306 20311 1
22994 20308 20307 1
22995 20307 20412 1
22996 20308 20413 1
22997 20310 20309 1
22998 20309 20414 1
22999 20310 20312 1
23000 20312 20311 1
23001 20311 20316 1
23002 20312 20313 1
23003 20314 20313 1
23004 20313 20415 1
23005 20313 20416 1
23006 20315 20314 1
23007 20314 20417 1
23008 20314 20418 1
23009 20316 20315 1
23010 20315 20419 1
23011 20315 20420 1
23012 20316 20317 2
23013 20421 20422 1
23014 20421 20426 1
23015 20421 20568 1
23016 20421 20569 1
23017 20423 20422 1
23018 20422 20570 1
23019 20422 20571 1
23020 20424 20423 1
23021 20423 20430 1
23022 20423 20572 1
23023 20425 20424 1
23024 20424 20427 1
23025 20424 20573 1
23026 20426 20425 1
23027 20425 20574 1
23028 20425 20575 1
23029 20428 20427 1
23030 20427 20434 1
23031 20427 20576 1
23032 20429 20428 1
23033 20428 20431 1
23034 20428 20577 1
23035 20430 20429 1
23036 20429 20578 1
23037 20429 20579 1
23038 20430 20580 1
23039 20430 20581 1
23040 20432 20431 1
23041 20433 20432 1
23042 20432 20438 1
23043 20432 20582 1
23044 20434 20433 1
23045 20433 20435 1
23046 20433 20583 1
23047 20434 20584 1
23048 20434 20585 1
23049 20436 20435 1
23050 20435 20445 2
23051 20437 20436 1
23052 20436 20442 1
23053 20438 20437 1
23054 20437 20439 1
23055 20438 20450 1
23056 20438 20586 1
23057 20440 20439 1
23058 20439 20452 1
23059 20441 20440 1
23060 20440 20449 1
23061 20442 20441 1
23062 20441 20446 1
23063 20442 20443 1
23064 20444 20443 1
23065 20443 20587 1
23066 20443 20588 1
23067 20445 20444 1
23068 20444 20589 1
23069 20444 20590 1
23070 20445 20591 1
23071 20447 20446 1
23072 20448 20447 1
23073 20447 20483 1
23074 20449 20448 1
23075 20448 20467 1
23076 20449 20465 1
23077 20451 20450 1
23078 20450 20456 2
23079 20452 20451 1
23080 20451 20453 1
23081 20451 20592 1
23082 20452 20466 1
23083 20454 20453 2
23084 20453 20460 1
23085 20455 20454 1
23086 20454 20457 1
23087 20456 20455 1
23088 20455 20593 1
23089 20455 20594 1
23090 20456 20595 1
23091 20458 20457 1
23092 20457 20596 1
23093 20457 20597 1
23094 20459 20458 1
23095 20458 20598 1
23096 20458 20599 1
23097 20460 20459 2
23098 20459 20464 1
23099 20460 20461 1
23100 20462 20461 1
23101 20461 20600 1
23102 20461 20601 1
23103 20463 20462 1
23104 20462 20537 1
23105 20462 20602 1
23106 20464 20463 1
23107 20463 20603 1
23108 20463 20604 1
23109 20464 20605 1
23110 20464 20606 1
23111 20466 20465 1
23112 20465 20469 1
23113 20466 20607 1
23114 20468 20467 1
23115 20467 20473 1
23116 20469 20468 1
23117 20468 20470 1
23118 20471 20470 1
23119 20470 20608 1
23120 20472 20471 1
23121 20471 20477 1
23122 20473 20472 1
23123 20472 20474 1
23124 20473 20482 1
23125 20475 20474 1
23126 20474 20484 1
23127 20476 20475 1
23128 20475 20481 1
23129 20477 20476 1
23130 20476 20478 1
23131 20477 20609 1
23132 20479 20478 1
23133 20478 20494 1
23134 20480 20479 1
23135 20479 20491 1
23136 20481 20480 1
23137 20480 20488 1
23138 20481 20486 1
23139 20483 20482 1
23140 20482 20485 1
23141 20483 20610 1
23142 20485 20484 1
23143 20484 20487 1
23144 20485 20503 1
23145 20487 20486 1
23146 20486 20490 1
23147 20487 20505 1
23148 20489 20488 1
23149 20488 20521 1
23150 20490 20489 1
23151 20489 20516 1
23152 20490 20514 1
23153 20492 20491 1
23154 20493 20492 1
23155 20492 20498 1
23156 20492 20611 1
23157 20494 20493 1
23158 20493 20495 1
23159 20493 20612 1
23160 20494 20540 1
23161 20494 20613 1
23162 20496 20495 1
23163 20495 20614 1
23164 20495 20615 1
23165 20497 20496 1
23166 20496 20616 1
23167 20496 20617 1
23168 20498 20497 1
23169 20497 20502 1
23170 20497 20618 1
23171 20498 20499 1
23172 20498 20619 1
23173 20500 20499 1
23174 20499 20620 1
23175 20499 20621 1
23176 20501 20500 1
23177 20500 20622 1
23178 20500 20623 1
23179 20502 20501 1
23180 20501 20624 1
23181 20501 20625 1
23182 20502 20626 1
23183 20504 20503 1
23184 20503 20509 1
23185 20505 20504 1
23186 20504 20506 1
23187 20505 20515 1
23188 20507 20506 1
23189 20508 20507 1
23190 20507 20513 1
23191 20507 20627 1
23192 20509 20508 1
23193 20508 20510 1
23194 20508 20628 1
23195 20511 20510 1
23196 20510 20629 1
23197 20510 20630 1
23198 20512 20511 1
23199 20511 20631 1
23200 20511 20632 1
23201 20513 20512 1
23202 20512 20633 1
23203 20512 20634 1
23204 20513 20635 1
23205 20513 20636 1
23206 20515 20514 1
23207 20514 20518 1
23208 20515 20637 1
23209 20517 20516 1
23210 20516 20519 1
23211 20518 20517 1
23212 20517 20522 1
23213 20518 20638 1
23214 20520 20519 1
23215 20519 20524 1
23216 20521 20520 1
23217 20520 20525 1
23218 20521 20639 1
23219 20523 20522 1
23220 20524 20523 1
23221 20523 20534 1
23222 20524 20527 1
23223 20526 20525 1
23224 20525 20531 1
23225 20525 20640 1
23226 20527 20526 1
23227 20526 20528 1
23228 20526 20641 1
23229 20527 20532 1
23230 20529 20528 1
23231 20528 20535 1
23232 20528 20642 1
23233 20530 20529 1
23234 20529 20643 1
23235 20529 20644 1
23236 20531 20530 1
23237 20530 20645 1
23238 20530 20646 1
23239 20531 20647 1
23240 20531 20648 1
23241 20533 20532 1
23242 20532 20536 1
23243 20534 20533 1
23244 20533 20544 1
23245 20534 20541 1
23246 20535 20536 1
23247 20535 20559 1
23248 20536 20555 1
23249 20537 20538 1
23250 20537 20539 1
23251 20537 20649 1
23252 20538 20650 1
23253 20538 20651 1
23254 20538 20652 1
23255 20539 20653 1
23256 20539 20654 1
23257 20539 20655 1
23258 20540 20656 1
23259 20542 20541 1
23260 20541 20657 1
23261 20543 20542 1
23262 20542 20658 1
23263 20544 20543 1
23264 20543 20548 1
23265 20544 20545 1
23266 20546 20545 1
23267 20545 20555 1
23268 20547 20546 1
23269 20546 20552 1
23270 20548 20547 1
23271 20547 20549 1
23272 20548 20659 1
23273 20550 20549 1
23274 20549 20660 1
23275 20551 20550 1
23276 20550 20661 1
23277 20552 20551 1
23278 20551 20558 1
23279 20552 20553 1
23280 20554 20553 1
23281 20553 20556 1
23282 20555 20554 1
23283 20554 20560 1
23284 20557 20556 1
23285 20556 20561 1
23286 20558 20557 1
23287 20557 20662 1
23288 20558 20663 1
23289 20560 20559 1
23290 20559 20664 1
23291 20560 20562 1
23292 20562 20561 1
23293 20561 20566 1
23294 20562 20563 1
23295 20564 20563 1
23296 20563 20665 1
23297 20563 20666 1
23298 20565 20564 1
23299 20564 20667 1
23300 20564 20668 1
23301 20566 20565 1
23302 20565 20669 1
23303 20565 20670 1
23304 20566 20567 2
23305 20671 20672 1
23306 20671 20676 1
23307 20671 20818 1
23308 20671 20819 1
23309 20673 20672 1
23310 20672 20820 1
23311 20672 20821 1
23312 20674 20673 1
23313 20673 20680 1
23314 20673 20822 1
23315 20675 20674 1
23316 20674 20677 1
23317 20674 20823 1
23318 20676 20675 1
23319 20675 20824 1
23320 20675 20825 1
23321 20678 20677 1
23322 20677 20684 1
23323 20677 20826 1
23324 20679 20678 1
23325 20678 20681 1
23326 20678 20827 1
23327 20680 20679 1
23328 20679 20828 1
23329 20679 20829 1
23330 20680 20830 1
23331 20680 20831 1
23332 20682 20681 1
23333 20683 20682 1
23334 20682 20688 1
23335 20682 20832 1
23336 20684 20683 1
23337 20683 20685 1
23338 20683 20833 1
23339 20684 20834 1
23340 20684 20835 1
23341 20686 20685 1
23342 20685 20695 2
23343 20687 20686 1
23344 20686 20692 1
23345 20688 20687 1
23346 20687 20689 1
23347 20688 20700 1
23348 20688 20836 1
23349 20690 20689 1
23350 20689 20702 1
23351 20691 20690 1
23352 20690 20699 1
23353 20692 20691 1
23354 20691 20696 1
23355 20692 20693 1
23356 20694 20693 1
23357 20693 20837 1
23358 20693 20838 1
23359 20695 20694 1
23360 20694 20839 1
23361 20694 20840 1
23362 20695 20841 1
23363 20697 20696 1
23364 20698 20697 1
23365 20697 20733 1
23366 20699 20698 1
23367 20698 20717 1
23368 20699 20715 1
23369 20701 20700 1
23370 20700 20706 2
23371 20702 20701 1
23372 20701 20703 1
23373 20701 20842 1
23374 20702 20716 1
23375 20704 20703 2
23376 20703 20710 1
23377 20705 20704 1
23378 20704 20707 1
23379 20706 20705 1
23380 20705 20843 1
23381 20705 20844 1
23382 20706 20845 1
23383 20708 20707 1
23384 20707 20846 1
23385 20707 20847 1
23386 20709 20708 1
23387 20708 20848 1
23388 20708 20849 1
23389 20710 20709 2
23390 20709 20714 1
23391 20710 20711 1
23392 20712 20711 1
23393 20711 20850 1
23394 20711 20851 1
23395 20713 20712 1
23396 20712 20787 1
23397 20712 20852 1
23398 20714 20713 1
23399 20713 20853 1
23400 20713 20854 1
23401 20714 20855 1
23402 20714 20856 1
23403 20716 20715 1
23404 20715 20719 1
23405 20716 20857 1
23406 20718 20717 1
23407 20717 20723 1
23408 20719 20718 1
23409 20718 20720 1
23410 20721 20720 1
23411 20720 20858 1
23412 20722 20721 1
23413 20721 20727 1
23414 20723 20722 1
23415 20722 20724 1
23416 20723 20732 1
23417 20725 20724 1
23418 20724 20734 1
23419 20726 20725 1
23420 20725 20731 1
23421 20727 20726 1
23422 20726 20728 1
23423 20727 20859 1
23424 20729 20728 1
23425 20728 20744 1
23426 20730 20729 1
23427 20729 20741 1
23428 20731 20730 1
23429 20730 20738 1
23430 20731 20736 1
23431 20733 20732 1
23432 20732 20735 1
23433 20733 20860 1
23434 20735 20734 1
23435 20734 20737 1
23436 20735 20753 1
23437 20737 20736 1
23438 20736 20740 1
23439 20737 20755 1
23440 20739 20738 1
23441 20738 20771 1
23442 20740 20739 1
23443 20739 20766 1
23444 20740 20764 1
23445 20742 20741 1
23446 20743 20742 1
23447 20742 20748 1
23448 20742 20861 1
23449 20744 20743 1
23450 20743 20745 1
23451 20743 20862 1
23452 20744 20790 1
23453 20744 20863 1
23454 20746 20745 1
23455 20745 20864 1
23456 20745 20865 1
23457 20747 20746 1
23458 20746 20866 1
23459 20746 20867 1
23460 20748 20747 1
23461 20747 20752 1
23462 20747 20868 1
23463 20748 20749 1
23464 20748 20869 1
23465 20750 20749 1
23466 20749 20870 1
23467 20749 20871 1
23468 20751 20750 1
23469 20750 20872 1
23470 20750 20873 1
23471 20752 20751 1
23472 20751 20874 1
23473 20751 20875 1
23474 20752 20876 1
23475 20754 20753 1
23476 20753 20759 1
23477 20755 20754 1
23478 20754 20756 1
23479 20755 20765 1
23480 20757 20756 1
23481 20758 20757 1
23482 20757 20763 1
23483 20757 20877 1
23484 20759 20758 1
23485 20758 20760 1
23486 20758 20878 1
23487 20761 20760 1
23488 20760 20879 1
23489 20760 20880 1
23490 20762 20761 1
23491 20761 20881 1
23492 20761 20882 1
23493 20763 20762 1
23494 20762 20883 1
23495 20762 20884 1
23496 20763 20885 1
23497 20763 20886 1
23498 20765 20764 1
23499 20764 20768 1
23500 20765 20887 1
23501 20767 20766 1
23502 20766 20769 1
23503 20768 20767 1
23504 20767 20772 1
23505 20768 20888 1
23506 20770 20769 1
23507 20769 20774 1
23508 20771 20770 1
23509 20770 20775 1
23510 20771 20889 1
23511 20773 20772 1
23512 20774 20773 1
23513 20773 20784 1
23514 20774 20777 1
23515 20776 20775 1
23516 20775 20781 1
23517 20775 20890 1
23518 20777 20776 1
23519 20776 20778 1
23520 20776 20891 1
23521 20777 20782 1
23522 20779 20778 1
23523 20778 20785 1
23524 20778 20892 1
23525 20780 20779 1
23526 20779 20893 1
23527 20779 20894 1
23528 20781 20780 1
23529 20780 20895 1
23530 20780 20896 1
23531 20781 20897 1
23532 20781 20898 1
23533 20783 20782 1
23534 20782 20786 1
23535 20784 20783 1
23536 20783 20794 1
23537 20784 20791 1
23538 20785 20786 1
23539 20785 20809 1
23540 20786 20805 1
23541 20787 20788 1
23542 20787 20789 1
23543 20787 20899 1
23544 20788 20900 1
23545 20788 20901 1
23546 20788 20902 1
23547 20789 20903 1
23548 20789 20904 1
23549 20789 20905 1
23550 20790 20906 1
23551 20792 20791 1
23552 20791 20907 1
23553 20793 20792 1
23554 20792 20908 1
23555 20794 20793 1
23556 20793 20798 1
23557 20794 20795 1
23558 20796 20795 1
23559 20795 20805 1
23560 20797 20796 1
23561 20796 20802 1
23562 20798 20797 1
23563 20797 20799 1
23564 20798 20909 1
23565 20800 20799 1
23566 20799 20910 1
23567 20801 20800 1
23568 20800 20911 1
23569 20802 20801 1
23570 20801 20808 1
23571 20802 20803 1
23572 20804 20803 1
23573 20803 20806 1
23574 20805 20804 1
23575 20804 20810 1
23576 20807 20806 1
23577 20806 20811 1
23578 20808 20807 1
23579 20807 20912 1
23580 20808 20913 1
23581 20810 20809 1
23582 20809 20914 1
23583 20810 20812 1
23584 20812 20811 1
23585 20811 20816 1
23586 20812 20813 1
23587 20814 20813 1
23588 20813 20915 1
23589 20813 20916 1
23590 20815 20814 1
23591 20814 20917 1
23592 20814 20918 1
23593 20816 20815 1
23594 20815 20919 1
23595 20815 20920 1
23596 20816 20817 2
23597 20921 20922 1
23598 20921 20926 1
23599 20921 21068 1
23600 20921 21069 1
23601 20923 20922 1
23602 20922 21070 1
23603 20922 21071 1
23604 20924 20923 1
23605 20923 20930 1
23606 20923 21072 1
23607 20925 20924 1
23608 20924 20927 1
23609 20924 21073 1
23610 20926 20925 1
23611 20925 21074 1
23612 20925 21075 1
23613 20928 20927 1
23614 20927 20934 1
23615 20927 21076 1
23616 20929 20928 1
23617 20928 20931 1
23618 20928 21077 1
23619 20930 20929 1
23620 20929 21078 1
23621 20929 21079 1
23622 20930 21080 1
23623 20930 21081 1
23624 20932 20931 1
23625 20933 20932 1
23626 20932 20938 1
23627 20932 21082 1
23628 20934 20933 1
23629 20933 20935 1
23630 20933 21083 1
23631 20934 21084 1
23632 20934 21085 1
23633 20936 20935 1
23634 20935 20945 2
23635 20937 20936 1
23636 20936 20942 1
23637 20938 20937 1
23638 20937 20939 1
23639 20938 20950 1
23640 20938 21086 1
23641 20940 20939 1
23642 20939 20952 1
23643 20941 20940 1
23644 20940 20949 1
23645 20942 20941 1
23646 20941 20946 1
23647 20942 20943 1
23648 20944 20943 1
23649 20943 21087 1
23650 20943 21088 1
23651 20945 20944 1
23652 20944 21089 1
23653 20944 21090 1
23654 20945 21091 1
23655 20947 20946 1
23656 20948 20947 1
23657 20947 20983 1
23658 20949 20948 1
23659 20948 20967 1
23660 20949 20965 1
23661 20951 20950 1
23662 20950 20956 2
23663 20952 20951 1
23664 20951 20953 1
23665 20951 21092 1
23666 20952 20966 1
23667 20954 20953 2
23668 20953 20960 1
23669 20955 20954 1
23670 20954 20957 1
23671 20956 20955 1
23672 20955 21093 1
23673 20955 21094 1
23674 20956 21095 1
23675 20958 20957 1
23676 20957 21096 1
23677 20957 21097 1
23678 20959 20958 1
23679 20958 21098 1
23680 20958 21099 1
23681 20960 20959 2
23682 20959 20964 1
23683 20960 20961 1
23684 20962 20961 1
23685 20961 21100 1
23686 20961 21101 1
23687 20963 20962 1
23688 20962 21037 1
23689 20962 21102 1
23690 20964 20963 1
23691 20963 21103 1
23692 20963 21104 1
23693 20964 21105 1
23694 20964 21106 1
23695 20966 20965 1
23696 20965 20969 1
23697 20966 21107 1
23698 20968 20967 1
23699 20967 20973 1
23700 20969 20968 1
23701 20968 20970 1
23702 20971 20970 1
23703 20970 21108 1
23704 20972 20971 1
23705 20971 20977 1
23706 20973 20972 1
23707 20972 20974 1
23708 20973 20982 1
23709 20975 20974 1
23710 20974 20984 1
23711 20976 20975 1
23712 20975 20981 1
23713 20977 20976 1
23714 20976 20978 1
23715 20977 21109 1
23716 20979 20978 1
23717 20978 20994 1
23718 20980 20979 1
23719 20979 20991 1
23720 20981 20980 1
23721 20980 20988 1
23722 20981 20986 1
23723 20983 20982 1
23724 20982 20985 1
23725 20983 21110 1
23726 20985 20984 1
23727 20984 20987 1
23728 20985 21003 1
23729 20987 20986 1
23730 20986 20990 1
23731 20987 21005 1
23732 20989 20988 1
23733 20988 21021 1
23734 20990 20989 1
23735 20989 21016 1
23736 20990 21014 1
23737 20992 20991 1
23738 20993 20992 1
23739 20992 20998 1
23740 20992 21111 1
23741 20994 20993 1
23742 20993 20995 1
23743 20993 21112 1
23744 20994 21040 1
23745 20994 21113 1
23746 20996 20995 1
23747 20995 21114 1
23748 20995 21115 1
23749 20997 20996 1
23750 20996 21116 1
23751 20996 21117 1
23752 20998 20997 1
23753 20997 21002 1
23754 20997 21118 1
23755 20998 20999 1
23756 20998 21119 1
23757 21000 20999 1
23758 20999 21120 1
23759 20999 21121 1
23760 21001 21000 1
23761 21000 21122 1
23762 21000 21123 1
23763 21002 21001 1
23764 21001 21124 1
23765 21001 21125 1
23766 21002 21126 1
23767 21004 21003 1
23768 21003 21009 1
23769 21005 21004 1
23770 21004 21006 1
23771 21005 21015 1
23772 21007 21006 1
23773 21008 21007 1
23774 21007 21013 1
23775 21007 21127 1
23776 21009 21008 1
23777 21008 21010 1
23778 21008 21128 1
23779 21011 21010 1
23780 21010 21129 1
23781 21010 21130 1
23782 21012 21011 1
23783 21011 21131 1
23784 21011 21132 1
23785 21013 21012 1
23786 21012 21133 1
23787 21012 21134 1
23788 21013 21135 1
23789 21013 21136 1
23790 21015 21014 1
23791 21014 21018 1
23792 21015 21137 1
23793 21017 21016 1
23794 21016 21019 1
23795 21018 21017 1
23796 21017 21022 1
23797 21018 21138 1
23798 21020 21019 1
23799 21019 21024 1
23800 21021 21020 1
23801 21020 21025 1
23802 21021 21139 1
23803 21023 21022 1
23804 21024 21023 1
23805 21023 21034 1
23806 21024 21027 1
23807 21026 21025 1
23808 21025 21031 1
23809 21025 21140 1
23810 21027 21026 1
23811 21026 21028 1
23812 21026 21141 1
23813 21027 21032 1
23814 21029 21028 1
23815 21028 21035 1
23816 21028 21142 1
23817 21030 21029 1
23818 21029 21143 1
23819 21029 21144 1
23820 21031 21030 1
23821 21030 21145 1
23822 21030 21146 1
23823 21031 21147 1
23824 21031 21148 1
23825 21033 21032 1
23826 21032 21036 1
23827 21034 21033 1
23828 21033 21044 1
23829 21034 21041 1
23830 21035 21036 1
23831 21035 21059 1
23832 21036 21055 1
23833 21037 21038 1
23834 21037 21039 1
23835 21037 21149 1
23836 21038 21150 1
23837 21038 21151 1
23838 21038 21152 1
23839 21039 21153 1
23840 21039 21154 1
23841 21039 21155 1
23842 21040 21156 1
23843 21042 21041 1
23844 21041 21157 1
23845 21043 21042 1
23846 21042 21158 1
23847 21044 21043 1
23848 21043 21048 1
23849 21044 21045 1
23850 21046 21045 1
23851 21045 21055 1
23852 21047 21046 1
23853 21046 21052 1
23854 21048 21047 1
23855 21047 21049 1
23856 21048 21159 1
23857 21050 21049 1
23858 21049 21160 1
23859 21051 21050 1
23860 21050 21161 1
23861 21052 21051 1
23862 21051 21058 1
23863 21052 21053 1
23864 21054 21053 1
23865 21053 21056 1
23866 21055 21054 1
23867 21054 21060 1
23868 21057 21056 1
23869 21056 21061 1
23870 21058 21057 1
23871 21057 21162 1
23872 21058 21163 1
23873 21060 21059 1
23874 21059 21164 1
23875 21060 21062 1
23876 21062 21061 1
23877 21061 21066 1
23878 21062 21063 1
23879 21064 21063 1
23880 21063 21165 1
23881 21063 21166 1
23882 21065 21064 1
23883 21064 21167 1
23884 21064 21168 1
23885 21066 21065 1
23886 21065 21169 1
23887 21065 21170 1
23888 21066 21067 2
23889 21171 21172 1
23890 21171 21176 1
23891 21171 21318 1
23892 21171 21319 1
23893 21173 21172 1
23894 21172 21320 1
23895 21172 21321 1
23896 21174 21173 1
23897 21173 21180 1
23898 21173 21322 1
23899 21175 21174 1
23900 21174 21177 1
23901 21174 21323 1
23902 21176 21175 1
23903 21175 21324 1
23904 21175 21325 1
23905 21178 21177 1
23906 21177 21184 1
23907 21177 21326 1
23908 21179 21178 1
23909 21178 21181 1
23910 21178 21327 1
23911 21180 21179 1
23912 21179 21328 1
23913 21179 21329 1
23914 21180 21330 1
23915 21180 21331 1
23916 21182 21181 1
23917 21183 21182 1
23918 21182 21188 1
23919 21182 21332 1
23920 21184 21183 1
23921 21183 21185 1
23922 21183 21333 1
23923 21184 21334 1
23924 21184 21335 1
23925 21186 21185 1
23926 21185 21195 2
23927 21187 21186 1
23928 21186 21192 1
23929 21188 21187 1
23930 21187 21189 1
23931 21188 21200 1
23932 21188 21336 1
23933 21190 21189 1
23934 21189 21202 1
23935 21191 21190 1
23936 21190 21199 1
23937 21192 21191 1
23938 21191 21196 1
23939 21192 21193 1
23940 21194 21193 1
23941 21193 21337 1
23942 21193 21338 1
23943 21195 21194 1
23944 21194 21339 1
23945 21194 21340 1
23946 21195 21341 1
23947 21197 21196 1
23948 21198 21197 1
23949 21197 21233 1
23950 21199 21198 1
23951 21198 21217 1
23952 21199 21215 1
23953 21201 21200 1
23954 21200 21206 2
23955 21202 21201 1
23956 21201 21203 1
23957 21201 21342 1
23958 21202 21216 1
23959 21204 21203 2
23960 21203 21210 1
23961 21205 21204 1
23962 21204 21207 1
23963 21206 21205 1
23964 21205 21343 1
23965 21205 21344 1
23966 21206 21345 1
23967 21208 21207 1
23968 21207 21346 1
23969 21207 21347 1
23970 21209 21208 1
23971 21208 21348 1
23972 21208 21349 1
23973 21210 21209 2
23974 21209 21214 1
23975 21210 21211 1
23976 21212 21211 1
23977 21211 21350 1
23978 21211 21351 1
23979 21213 21212 1
23980 21212 21287 1
23981 21212 21352 1
23982 21214 21213 1
23983 21213 21353 1
23984 21213 21354 1
23985 21214 21355 1
23986 21214 21356 1
23987 21216 21215 1
23988 21215 21219 1
23989 21216 21357 1
23990 21218 21217 1
23991 21217 21223 1
23992 21219 21218 1
23993 21218 21220 1
23994 21221 21220 1
23995 21220 21358 1
23996 21222 21221 1
23997 21221 21227 1
23998 21223 21222 1
23999 21222 21224 1
24000 21223 21232 1
24001 21225 21224 1
24002 21224 21234 1
24003 21226 21225 1
24004 21225 21231 1
24005 21227 21226 1
24006 21226 21228 1
24007 21227 21359 1
24008 21229 21228 1
24009 21228 21244 1
24010 21230 21229 1
24011 21229 21241 1
24012 21231 21230 1
24013 21230 21238 1
24014 21231 21236 1
24015 21233 21232 1
24016 21232 21235 1
24017 21233 21360 1
24018 21235 21234 1
24019 21234 21237 1
24020 21235 21253 1
24021 21237 21236 1
24022 21236 21240 1
24023 21237 21255 1
24024 21239 21238 1
24025 21238 21271 1
24026 21240 21239 1
24027 21239 21266 1
24028 21240 21264 1
24029 21242 21241 1
24030 21243 21242 1
24031 21242 21248 1
24032 21242 21361 1
24033 21244 21243 1
24034 21243 21245 1
24035 21243 21362 1
24036 21244 21290 1
24037 21244 21363 1
24038 21246 21245 1
24039 21245 21364 1
24040 21245 21365 1
24041 21247 21246 1
24042 21246 21366 1
24043 21246 21367 1
24044 21248 21247 1
24045 21247 21252 1
24046 21247 21368 1
24047 21248 21249 1
24048 21248 21369 1
24049 21250 21249 1
24050 21249 21370 1
24051 21249 21371 1
24052 21251 21250 1
24053 21250 21372 1
24054 21250 21373 1
24055 21252 21251 1
24056 21251 21374 1
24057 21251 21375 1
24058 21252 21376 1
24059 21254 21253 1
24060 21253 21259 1
24061 21255 21254 1
24062 21254 21256 1
24063 21255 21265 1
24064 21257 21256 1
24065 21258 21257 1
24066 21257 21263 1
24067 21257 21377 1
24068 21259 21258 1
24069 21258 21260 1
24070 21258 21378 1
24071 21261 21260 1
24072 21260 21379 1
24073 21260 21380 1
24074 21262 21261 1
24075 21261 21381 1
24076 21261 21382 1
24077 21263 21262 1
24078 21262 21383 1
24079 21262 21384 1
24080 21263 21385 1
24081 21263 21386 1
24082 21265 21264 1
24083 21264 21268 1
24084 21265 21387 1
24085 21267 21266 1
24086 21266 21269 1
24087 21268 21267 1
24088 21267 21272 1
24089 21268 21388 1
24090 21270 21269 1
24091 21269 21274 1
24092 21271 21270 1
24093 21270 21275 1
24094 21271 21389 1
24095 21273 21272 1
24096 21274 21273 1
24097 21273 21284 1
24098 21274 21277 1
24099 21276 21275 1
24100 21275 21281 1
24101 21275 21390 1
24102 21277 21276 1
24103 21276 21278 1
24104 21276 21391 1
24105 21277 21282 1
24106 21279 21278 1
24107 21278 21285 1
24108 21278 21392 1
24109 21280 21279 1
24110 21279 21393 1
24111 21279 21394 1
24112 21281 21280 1
24113 21280 21395 1
24114 21280 21396 1
24115 21281 21397 1
24116 21281 21398 1
24117 21283 21282 1
24118 21282 21286 1
24119 21284 21283 1
24120 21283 21294 1
24121 21284 21291 1
24122 21285 21286 1
24123 21285 21309 1
24124 21286 21305 1
24125 21287 21288 1
24126 21287 21289 1
24127 21287 21399 1
24128 21288 21400 1
24129 21288 21401 1
24130 21288 21402 1
24131 21289 21403 1
24132 21289 21404 1
24133 21289 21405 1
24134 21290 21406 1
24135 21292 21291 1
24136 21291 21407 1
24137 21293 21292 1
24138 21292 21408 1
24139 21294 21293 1
24140 21293 21298 1
24141 21294 21295 1
24142 21296 21295 1
24143 21295 21305 1
24144 21297 21296 1
24145 21296 21302 1
24146 21298 21297 1
24147 21297 21299 1
24148 21298 21409 1
24149 21300 21299 1
24150 21299 21410 1
24151 21301 21300 1
24152 21300 21411 1
24153 21302 21301 1
24154 21301 21308 1
24155 21302 21303 1
24156 21304 21303 1
24157 21303 21306 1
24158 21305 21304 1
24159 21304 21310 1
24160 21307 21306 1
24161 21306 21311 1
24162 21308 21307 1
24163 21307 21412 1
24164 21308 21413 1
24165 21310 21309 1
24166 21309 21414 1
24167 21310 21312 1
24168 21312 21311 1
24169 21311 21316 1
24170 21312 21313 1
24171 21314 21313 1
24172 21313 21415 1
24173 21313 21416 1
24174 21315 21314 1
24175 21314 21417 1
24176 21314 21418 1
24177 21316 21315 1
24178 21315 21419 1
24179 21315 21420 1
24180 21316 21317 2
24181 21421 21422 un
24182 21421 21426 un
24183 21421 21476 1
24184 21423 21422 un
24185 21422 21478 1
24186 21424 21423 un
24187 21423 21430 1
24188 21425 21424 un
24189 21424 21427 1
24190 21426 21425 un
24191 21425 21477 1
24192 21426 21474 1
24193 21428 21427 1
24194 21427 21490 1
24195 21427 21491 1
24196 21429 21428 un
24197 21428 21434 un
24198 21430 21429 1
24199 21429 21431 un
24200 21430 21492 1
24201 21430 21493 1
24202 21432 21431 un
24203 21431 21479 1
24204 21433 21432 un
24205 21432 21480 1
24206 21434 21433 un
24207 21433 21438 un
24208 21434 21435 un
24209 21436 21435 un
24210 21435 21494 1
24211 21437 21436 un
24212 21436 21442 un
24213 21438 21437 un
24214 21437 21439 1
24215 21438 21481 1
24216 21440 21439 1
24217 21439 21446 1
24218 21441 21440 1
24219 21440 21443 1
24220 21442 21441 un
24221 21441 21450 un
24222 21442 21447 un
24223 21444 21443 1
24224 21443 21495 1
24225 21443 21496 1
24226 21445 21444 un
24227 21444 21483 1
24228 21444 21497 1
24229 21446 21445 1
24230 21445 21482 1
24231 21445 21498 1
24232 21446 21499 1
24233 21446 21500 1
24234 21448 21447 un
24235 21447 21485 1
24236 21449 21448 un
24237 21448 21454 1
24238 21450 21449 un
24239 21449 21451 1
24240 21450 21484 1
24241 21452 21451 1
24242 21451 21487 2
24243 21453 21452 un
24244 21452 21458 un
24245 21454 21453 1
24246 21453 21455 1
24247 21454 21486 2
24248 21456 21455 1
24249 21455 21501 1
24250 21455 21502 1
24251 21457 21456 1
24252 21456 21503 1
24253 21456 21504 1
24254 21458 21457 un
24255 21457 21462 un
24256 21458 21459 un
24257 21460 21459 un
24258 21461 21460 un
24259 21460 21469 un
24260 21462 21461 un
24261 21461 21466 1
24262 21462 21463 1
24263 21464 21463 1
24264 21463 21505 1
24265 21463 21506 1
24266 21465 21464 1
24267 21464 21507 1
24268 21464 21508 1
24269 21466 21465 1
24270 21465 21509 1
24271 21465 21510 1
24272 21466 21467 1
24273 21466 21511 1
24274 21468 21467 1
24275 21467 21512 1
24276 21467 21513 1
24277 21469 21468 un
24278 21468 21473 un
24279 21469 21470 un
24280 21471 21470 un
24281 21470 21514 1
24282 21472 21471 un
24283 21471 21515 1
24284 21473 21472 un
24285 21472 21489 1
24286 21473 21488 1
24287 21474 21475 1
24288 21474 21516 1
24289 21474 21517 1
24290 21475 21518 1
24291 21475 21519 1
24292 21475 21520 1
24293 21476 21521 1
24294 21476 21522 1
24295 21476 21523 1
24296 21477 21524 1
24297 21477 21525 1
24298 21477 21526 1
24299 21478 21527 1
24300 21478 21528 1
24301 21478 21529 1
24302 21479 21530 1
24303 21479 21531 1
24304 21479 21532 1
24305 21480 21533 1
24306 21480 21534 1
24307 21480 21535 1
24308 21481 21536 1
24309 21482 21537 1
24310 21482 21538 1
24311 21482 21539 1
24312 21483 21540 1
24313 21483 21541 1
24314 21483 21542 1
24315 21484 21543 1
24316 21485 21544 1
24317 21488 21545 1
24318 21488 21546 1
24319 21488 21547 1
24320 21489 21548 1
24321 21489 21549 1
24322 21489 21550 1
24323 21551 21552 un
24324 21551 21556 un
24325 21551 21606 1
24326 21553 21552 un
24327 21552 21608 1
24328 21554 21553 un
24329 21553 21560 1
24330 21555 21554 un
24331 21554 21557 1
24332 21556 21555 un
24333 21555 21607 1
24334 21556 21604 1
24335 21558 21557 1
24336 21557 21620 1
24337 21557 21621 1
24338 21559 21558 un
24339 21558 21564 un
24340 21560 21559 1
24341 21559 21561 un
24342 21560 21622 1
24343 21560 21623 1
24344 21562 21561 un
24345 21561 21609 1
24346 21563 21562 un
24347 21562 21610 1
24348 21564 21563 un
24349 21563 21568 un
24350 21564 21565 un
24351 21566 21565 un
24352 21565 21624 1
24353 21567 21566 un
24354 21566 21572 un
24355 21568 21567 un
24356 21567 21569 1
24357 21568 21611 1
24358 21570 21569 1
24359 21569 21576 1
24360 21571 21570 1
24361 21570 21573 1
24362 21572 21571 un
24363 21571 21580 un
24364 21572 21577 un
24365 21574 21573 1
24366 21573 21625 1
24367 21573 21626 1
24368 21575 21574 un
24369 21574 21613 1
24370 21574 21627 1
24371 21576 21575 1
24372 21575 21612 1
24373 21575 21628 1
24374 21576 21629 1
24375 21576 21630 1
24376 21578 21577 un
24377 21577 21615 1
24378 21579 21578 un
24379 21578 21584 1
24380 21580 21579 un
24381 21579 21581 1
24382 21580 21614 1
24383 21582 21581 1
24384 21581 21617 2
24385 21583 21582 un
24386 21582 21588 un
24387 21584 21583 1
24388 21583 21585 1
24389 21584 21616 2
24390 21586 21585 1
24391 21585 21631 1
24392 21585 21632 1
24393 21587 21586 1
24394 21586 21633 1
24395 21586 21634 1
24396 21588 21587 un
24397 21587 21592 un
24398 21588 21589 un
24399 21590 21589 un
24400 21591 21590 un
24401 21590 21599 un
24402 21592 21591 un
24403 21591 21596 1
24404 21592 21593 1
24405 21594 21593 1
24406 21593 21635 1
24407 21593 21636 1
24408 21595 21594 1
24409 21594 21637 1
24410 21594 21638 1
24411 21596 21595 1
24412 21595 21639 1
24413 21595 21640 1
24414 21596 21597 1
24415 21596 21641 1
24416 21598 21597 1
24417 21597 21642 1
24418 21597 21643 1
24419 21599 21598 un
24420 21598 21603 un
24421 21599 21600 un
24422 21601 21600 un
24423 21600 21644 1
24424 21602 21601 un
24425 21601 21645 1
24426 21603 21602 un
24427 21602 21619 1
24428 21603 21618 1
24429 21604 21605 1
24430 21604 21646 1
24431 21604 21647 1
24432 21605 21648 1
24433 21605 21649 1
24434 21605 21650 1
24435 21606 21651 1
24436 21606 21652 1
24437 21606 21653 1
24438 21607 21654 1
24439 21607 21655 1
24440 21607 21656 1
24441 21608 21657 1
24442 21608 21658 1
24443 21608 21659 1
24444 21609 21660 1
24445 21609 21661 1
24446 21609 21662 1
24447 21610 21663 1
24448 21610 21664 1
24449 21610 21665 1
24450 21611 21666 1
24451 21612 21667 1
24452 21612 21668 1
24453 21612 21669 1
24454 21613 21670 1
24455 21613 21671 1
24456 21613 21672 1
24457 21614 21673 1
24458 21615 21674 1
24459 21618 21675 1
24460 21618 21676 1
24461 21618 21677 1
24462 21619 21678 1
24463 21619 21679 1
24464 21619 21680 1
24465 21681 21682 un
24466 21681 21686 un
24467 21681 21736 1
24468 21683 21682 un
24469 21682 21738 1
24470 21684 21683 un
24471 21683 21690 1
24472 21685 21684 un
24473 21684 21687 1
24474 21686 21685 un
24475 21685 21737 1
24476 21686 21734 1
24477 21688 21687 1
24478 21687 21750 1
24479 21687 21751 1
24480 21689 21688 un
24481 21688 21694 un
24482 21690 21689 1
24483 21689 21691 un
24484 21690 21752 1
24485 21690 21753 1
24486 21692 21691 un
24487 21691 21739 1
24488 21693 21692 un
24489 21692 21740 1
24490 21694 21693 un
24491 21693 21698 un
24492 21694 21695 un
24493 21696 21695 un
24494 21695 21754 1
24495 21697 21696 un
24496 21696 21702 un
24497 21698 21697 un
24498 21697 21699 1
24499 21698 21741 1
24500 21700 21699 1
24501 21699 21706 1
24502 21701 21700 1
24503 21700 21703 1
24504 21702 21701 un
24505 21701 21710 un
24506 21702 21707 un
24507 21704 21703 1
24508 21703 21755 1
24509 21703 21756 1
24510 21705 21704 un
24511 21704 21743 1
24512 21704 21757 1
24513 21706 21705 1
24514 21705 21742 1
24515 21705 21758 1
24516 21706 21759 1
24517 21706 21760 1
24518 21708 21707 un
24519 21707 21745 1
24520 21709 21708 un
24521 21708 21714 1
24522 21710 21709 un
24523 21709 21711 1
24524 21710 21744 1
24525 21712 21711 1
24526 21711 21747 2
24527 21713 21712 un
24528 21712 21718 un
24529 21714 21713 1
24530 21713 21715 1
24531 21714 21746 2
24532 21716 21715 1
24533 21715 21761 1
24534 21715 21762 1
24535 21717 21716 1
24536 21716 21763 1
24537 21716 21764 1
24538 21718 21717 un
24539 21717 21722 un
24540 21718 21719 un
24541 21720 21719 un
24542 21721 21720 un
24543 21720 21729 un
24544 21722 21721 un
24545 21721 21726 1
24546 21722 21723 1
24547 21724 21723 1
24548 21723 21765 1
24549 21723 21766 1
24550 21725 21724 1
24551 21724 21767 1
24552 21724 21768 1
24553 21726 21725 1
24554 21725 21769 1
24555 21725 21770 1
24556 21726 21727 1
24557 21726 21771 1
24558 21728 21727 1
24559 21727 21772 1
24560 21727 21773 1
24561 21729 21728 un
24562 21728 21733 un
24563 21729 21730 un
24564 21731 21730 un
24565 21730 21774 1
24566 21732 21731 un
24567 21731 21775 1
24568 21733 21732 un
24569 21732 21749 1
24570 21733 21748 1
24571 21734 21735 1
24572 21734 21776 1
24573 21734 21777 1
24574 21735 21778 1
24575 21735 21779 1
24576 21735 21780 1
24577 21736 21781 1
24578 21736 21782 1
24579 21736 21783 1
24580 21737 21784 1
24581 21737 21785 1
24582 21737 21786 1
24583 21738 21787 1
24584 21738 21788 1
24585 21738 21789 1
24586 21739 21790 1
24587 21739 21791 1
24588 21739 21792 1
24589 21740 21793 1
24590 21740 21794 1
24591 21740 21795 1
24592 21741 21796 1
24593 21742 21797 1
24594 21742 21798 1
24595 21742 21799 1
24596 21743 21800 1
24597 21743 21801 1
24598 21743 21802 1
24599 21744 21803 1
24600 21745 21804 1
24601 21748 21805 1
24602 21748 21806 1
24603 21748 21807 1
24604 21749 21808 1
24605 21749 21809 1
24606 21749 21810 1
24607 21811 21812 un
24608 21811 21816 un
24609 21811 21866 1
24610 21813 21812 un
24611 21812 21868 1
24612 21814 21813 un
24613 21813 21820 1
24614 21815 21814 un
24615 21814 21817 1
24616 21816 21815 un
24617 21815 21867 1
24618 21816 21864 1
24619 21818 21817 1
24620 21817 21880 1
24621 21817 21881 1
24622 21819 21818 un
24623 21818 21824 un
24624 21820 21819 1
24625 21819 21821 un
24626 21820 21882 1
24627 21820 21883 1
24628 21822 21821 un
24629 21821 21869 1
24630 21823 21822 un
24631 21822 21870 1
24632 21824 21823 un
24633 21823 21828 un
24634 21824 21825 un
24635 21826 21825 un
24636 21825 21884 1
24637 21827 21826 un
24638 21826 21832 un
24639 21828 21827 un
24640 21827 21829 1
24641 21828 21871 1
24642 21830 21829 1
24643 21829 21836 1
24644 21831 21830 1
24645 21830 21833 1
24646 21832 21831 un
24647 21831 21840 un
24648 21832 21837 un
24649 21834 21833 1
24650 21833 21885 1
24651 21833 21886 1
24652 21835 21834 un
24653 21834 21873 1
24654 21834 21887 1
24655 21836 21835 1
24656 21835 21872 1
24657 21835 21888 1
24658 21836 21889 1
24659 21836 21890 1
24660 21838 21837 un
24661 21837 21875 1
24662 21839 21838 un
24663 21838 21844 1
24664 21840 21839 un
24665 21839 21841 1
24666 21840 21874 1
24667 21842 21841 1
24668 21841 21877 2
24669 21843 21842 un
24670 21842 21848 un
24671 21844 21843 1
24672 21843 21845 1
24673 21844 21876 2
24674 21846 21845 1
24675 21845 21891 1
24676 21845 21892 1
24677 21847 21846 1
24678 21846 21893 1
24679 21846 21894 1
24680 21848 21847 un
24681 21847 21852 un
24682 21848 21849 un
24683 21850 21849 un
24684 21851 21850 un
24685 21850 21859 un
24686 21852 21851 un
24687 21851 21856 1
24688 21852 21853 1
24689 21854 21853 1
24690 21853 21895 1
24691 21853 21896 1
24692 21855 21854 1
24693 21854 21897 1
24694 21854 21898 1
24695 21856 21855 1
24696 21855 21899 1
24697 21855 21900 1
24698 21856 21857 1
24699 21856 21901 1
24700 21858 21857 1
24701 21857 21902 1
24702 21857 21903 1
24703 21859 21858 un
24704 21858 21863 un
24705 21859 21860 un
24706 21861 21860 un
24707 21860 21904 1
24708 21862 21861 un
24709 21861 21905 1
24710 21863 21862 un
24711 21862 21879 1
24712 21863 21878 1
24713 21864 21865 1
24714 21864 21906 1
24715 21864 21907 1
24716 21865 21908 1
24717 21865 21909 1
24718 21865 21910 1
24719 21866 21911 1
24720 21866 21912 1
24721 21866 21913 1
24722 21867 21914 1
24723 21867 21915 1
24724 21867 21916 1
24725 21868 21917 1
24726 21868 21918 1
24727 21868 21919 1
24728 21869 21920 1
24729 21869 21921 1
24730 21869 21922 1
24731 21870 21923 1
24732 21870 21924 1
24733 21870 21925 1
24734 21871 21926 1
24735 21872 21927 1
24736 21872 21928 1
24737 21872 21929 1
24738 21873 21930 1
24739 21873 21931 1
24740 21873 21932 1
24741 21874 21933 1
24742 21875 21934 1
24743 21878 21935 1
24744 21878 21936 1
24745 21878 21937 1
24746 21879 21938 1
24747 21879 21939 1
24748 21879 21940 1
24749 21941 21942 un
24750 21941 21946 un
24751 21941 21996 1
24752 21943 21942 un
24753 21942 21998 1
24754 21944 21943 un
24755 21943 21950 1
24756 21945 21944 un
24757 21944 21947 1
24758 21946 21945 un
24759 21945 21997 1
24760 21946 21994 1
24761 21948 21947 1
24762 21947 22010 1
24763 21947 22011 1
24764 21949 21948 un
24765 21948 21954 un
24766 21950 21949 1
24767 21949 21951 un
24768 21950 22012 1
24769 21950 22013 1
24770 21952 21951 un
24771 21951 21999 1
24772 21953 21952 un
24773 21952 22000 1
24774 21954 21953 un
24775 21953 21958 un
24776 21954 21955 un
24777 21956 21955 un
24778 21955 22014 1
24779 21957 21956 un
24780 21956 21962 un
24781 21958 21957 un
24782 21957 21959 1
24783 21958 22001 1
24784 21960 21959 1
24785 21959 21966 1
24786 21961 21960 1
24787 21960 21963 1
24788 21962 21961 un
24789 21961 21970 un
24790 21962 21967 un
24791 21964 21963 1
24792 21963 22015 1
24793 21963 22016 1
24794 21965 21964 un
24795 21964 22003 1
24796 21964 22017 1
24797 21966 21965 1
24798 21965 22002 1
24799 21965 22018 1
24800 21966 22019 1
24801 21966 22020 1
24802 21968 21967 un
24803 21967 22005 1
24804 21969 21968 un
24805 21968 21974 1
24806 21970 21969 un
24807 21969 21971 1
24808 21970 22004 1
24809 21972 21971 1
24810 21971 22007 2
24811 21973 21972 un
24812 21972 21978 un
24813 21974 21973 1
24814 21973 21975 1
24815 21974 22006 2
24816 21976 21975 1
24817 21975 22021 1
24818 21975 22022 1
24819 21977 21976 1
24820 21976 22023 1
24821 21976 22024 1
24822 21978 21977 un
24823 21977 21982 un
24824 21978 21979 un
24825 21980 21979 un
24826 21981 21980 un
24827 21980 21989 un
24828 21982 21981 un
24829 21981 21986 1
24830 21982 21983 1
24831 21984 21983 1
24832 21983 22025 1
24833 21983 22026 1
24834 21985 21984 1
24835 21984 22027 1
24836 21984 22028 1
24837 21986 21985 1
24838 21985 22029 1
24839 21985 22030 1
24840 21986 21987 1
24841 21986 22031 1
24842 21988 21987 1
24843 21987 22032 1
24844 21987 22033 1
24845 21989 21988 un
24846 21988 21993 un
24847 21989 21990 un
24848 21991 21990 un
24849 21990 22034 1
24850 21992 21991 un
24851 21991 22035 1
24852 21993 21992 un
24853 21992 22009 1
24854 21993 22008 1
24855 21994 21995 1
24856 21994 22036 1
24857 21994 22037 1
24858 21995 22038 1
24859 21995 22039 1
24860 21995 22040 1
24861 21996 22041 1
24862 21996 22042 1
24863 21996 22043 1
24864 21997 22044 1
24865 21997 22045 1
24866 21997 22046 1
24867 21998 22047 1
24868 21998 22048 1
24869 21998 22049 1
24870 21999 22050 1
24871 21999 22051 1
24872 21999 22052 1
24873 22000 22053 1
24874 22000 22054 1
24875 22000 22055 1
24876 22001 22056 1
24877 22002 22057 1
24878 22002 22058 1
24879 22002 22059 1
24880 22003 22060 1
24881 22003 22061 1
24882 22003 22062 1
24883 22004 22063 1
24884 22005 22064 1
24885 22008 22065 1
24886 22008 22066 1
24887 22008 22067 1
24888 22009 22068 1
24889 22009 22069 1
24890 22009 22070 1
24891 22071 22072 un
24892 22071 22076 un
24893 22071 22126 1
24894 22073 22072 un
24895 22072 22128 1
24896 22074 22073 un
24897 22073 22080 1
24898 22075 22074 un
24899 22074 22077 1
24900 22076 22075 un
24901 22075 22127 1
24902 22076 22124 1
24903 22078 22077 1
24904 22077 22140 1
24905 22077 22141 1
24906 22079 22078 un
24907 22078 22084 un
24908 22080 22079 1
24909 22079 22081 un
24910 22080 22142 1
24911 22080 22143 1
24912 22082 22081 un
24913 22081 22129 1
24914 22083 22082 un
24915 22082 22130 1
24916 22084 22083 un
24917 22083 22088 un
24918 22084 22085 un
24919 22086 22085 un
24920 22085 22144 1
24921 22087 22086 un
24922 22086 22092 un
24923 22088 22087 un
24924 22087 22089 1
24925 22088 22131 1
24926 22090 22089 1
24927 22089 22096 1
24928 22091 22090 1
24929 22090 22093 1
24930 22092 22091 un
24931 22091 22100 un
24932 22092 22097 un
24933 22094 22093 1
24934 22093 22145 1
24935 22093 22146 1
24936 22095 22094 un
24937 22094 22133 1
24938 22094 22147 1
24939 22096 22095 1
24940 22095 22132 1
24941 22095 22148 1
24942 22096 22149 1
24943 22096 22150 1
24944 22098 22097 un
24945 22097 22135 1
24946 22099 22098 un
24947 22098 22104 1
24948 22100 22099 un
24949 22099 22101 1
24950 22100 22134 1
24951 22102 22101 1
24952 22101 22137 2
24953 22103 22102 un
24954 22102 22108 un
24955 22104 22103 1
24956 22103 22105 1
24957 22104 22136 2
24958 22106 22105 1
24959 22105 22151 1
24960 22105 22152 1
24961 22107 22106 1
24962 22106 22153 1
24963 22106 22154 1
24964 22108 22107 un
24965 22107 22112 un
24966 22108 22109 un
24967 22110 22109 un
24968 22111 22110 un
24969 22110 22119 un
24970 22112 22111 un
24971 22111 22116 1
24972 22112 22113 1
24973 22114 22113 1
24974 22113 22155 1
24975 22113 22156 1
24976 22115 22114 1
24977 22114 22157 1
24978 22114 22158 1
24979 22116 22115 1
24980 22115 22159 1
24981 22115 22160 1
24982 22116 22117 1
24983 22116 22161 1
24984 22118 22117 1
24985 22117 22162 1
24986 22117 22163 1
24987 22119 22118 un
24988 22118 22123 un
24989 22119 22120 un
24990 22121 22120 un
24991 22120 22164 1
24992 22122 22121 un
24993 22121 22165 1
24994 22123 22122 un
24995 22122 22139 1
24996 22123 22138 1
24997 22124 22125 1
24998 22124 22166 1
24999 22124 22167 1
25000 22125 22168 1
25001 22125 22169 1
25002 22125 22170 1
25003 22126 22171 1
25004 22126 22172 1
25005 22126 22173 1
25006 22127 22174 1
25007 22127 22175 1
25008 22127 22176 1
25009 22128 22177 1
25010 22128 22178 1
25011 22128 22179 1
25012 22129 22180 1
25013 22129 22181 1
25014 22129 22182 1
25015 22130 22183 1
25016 22130 22184 1
25017 22130 22185 1
25018 22131 22186 1
25019 22132 22187 1
25020 22132 22188 1
25021 22132 22189 1
25022 22133 22190 1
25023 22133 22191 1
25024 22133 22192 1
25025 22134 22193 1
25026 22135 22194 1
25027 22138 22195 1
25028 22138 22196 1
25029 22138 22197 1
25030 22139 22198 1
25031 22139 22199 1
25032 22139 22200 1
25033 22201 22202 un
25034 22201 22206 un
25035 22201 22256 1
25036 22203 22202 un
25037 22202 22258 1
25038 22204 22203 un
25039 22203 22210 1
25040 22205 22204 un
25041 22204 22207 1
25042 22206 22205 un
25043 22205 22257 1
25044 22206 22254 1
25045 22208 22207 1
25046 22207 22270 1
25047 22207 22271 1
25048 22209 22208 un
25049 22208 22214 un
25050 22210 22209 1
25051 22209 22211 un
25052 22210 22272 1
25053 22210 22273 1
25054 22212 22211 un
25055 22211 22259 1
25056 22213 22212 un
25057 22212 22260 1
25058 22214 22213 un
25059 22213 22218 un
25060 22214 22215 un
25061 22216 22215 un
25062 22215 22274 1
25063 22217 22216 un
25064 22216 22222 un
25065 22218 22217 un
25066 22217 22219 1
25067 22218 22261 1
25068 22220 22219 1
25069 22219 22226 1
25070 22221 22220 1
25071 22220 22223 1
25072 22222 22221 un
25073 22221 22230 un
25074 22222 22227 un
25075 22224 22223 1
25076 22223 22275 1
25077 22223 22276 1
25078 22225 22224 un
25079 22224 22263 1
25080 22224 22277 1
25081 22226 22225 1
25082 22225 22262 1
25083 22225 22278 1
25084 22226 22279 1
25085 22226 22280 1
25086 22228 22227 un
25087 22227 22265 1
25088 22229 22228 un
25089 22228 22234 1
25090 22230 22229 un
25091 22229 22231 1
25092 22230 22264 1
25093 22232 22231 1
25094 22231 22267 2
25095 22233 22232 un
25096 22232 22238 un
25097 22234 22233 1
25098 22233 22235 1
25099 22234 22266 2
25100 22236 22235 1
25101 22235 22281 1
25102 22235 22282 1
25103 22237 22236 1
25104 22236 22283 1
25105 22236 22284 1
25106 22238 22237 un
25107 22237 22242 un
25108 22238 22239 un
25109 22240 22239 un
25110 22241 22240 un
25111 22240 22249 un
25112 22242 22241 un
25113 22241 22246 1
25114 22242 22243 1
25115 22244 22243 1
25116 22243 22285 1
25117 22243 22286 1
25118 22245 22244 1
25119 22244 22287 1
25120 22244 22288 1
25121 22246 22245 1
25122 22245 22289 1
25123 22245 22290 1
25124 22246 22247 1
25125 22246 22291 1
25126 22248 22247 1
25127 22247 22292 1
25128 22247 22293 1
25129 22249 22248 un
25130 22248 22253 un
25131 22249 22250 un
25132 22251 22250 un
25133 22250 22294 1
25134 22252 22251 un
25135 22251 22295 1
25136 22253 22252 un
25137 22252 22269 1
25138 22253 22268 1
25139 22254 22255 1
25140 22254 22296 1
25141 22254 22297 1
25142 22255 22298 1
25143 22255 22299 1
25144 22255 22300 1
25145 22256 22301 1
25146 22256 22302 1
25147 22256 22303 1
25148 22257 22304 1
25149 22257 22305 1
25150 22257 22306 1
25151 22258 22307 1
25152 22258 22308 1
25153 22258 22309 1
25154 22259 22310 1
25155 22259 22311 1
25156 22259 22312 1
25157 22260 22313 1
25158 22260 22314 1
25159 22260 22315 1
25160 22261 22316 1
25161 22262 22317 1
25162 22262 22318 1
25163 22262 22319 1
25164 22263 22320 1
25165 22263 22321 1
25166 22263 22322 1
25167 22264 22323 1
25168 22265 22324 1
25169 22268 22325 1
25170 22268 22326 1
25171 22268 22327 1
25172 22269 22328 1
25173 22269 22329 1
25174 22269 22330 1
25175 22331 22332 un
25176 22331 22336 un
25177 22331 22386 1
25178 22333 22332 un
25179 22332 22388 1
25180 22334 22333 un
25181 22333 22340 1
25182 22335 22334 un
25183 22334 22337 1
25184 22336 22335 un
25185 22335 22387 1
25186 22336 22384 1
25187 22338 22337 1
25188 22337 22400 1
25189 22337 22401 1
25190 22339 22338 un
25191 22338 22344 un
25192 22340 22339 1
25193 22339 22341 un
25194 22340 22402 1
25195 22340 22403 1
25196 22342 22341 un
25197 22341 22389 1
25198 22343 22342 un
25199 22342 22390 1
25200 22344 22343 un
25201 22343 22348 un
25202 22344 22345 un
25203 22346 22345 un
25204 22345 22404 1
25205 22347 22346 un
25206 22346 22352 un
25207 22348 22347 un
25208 22347 22349 1
25209 22348 22391 1
25210 22350 22349 1
25211 22349 22356 1
25212 22351 22350 1
25213 22350 22353 1
25214 22352 22351 un
25215 22351 22360 un
25216 22352 22357 un
25217 22354 22353 1
25218 22353 22405 1
25219 22353 22406 1
25220 22355 22354 un
25221 22354 22393 1
25222 22354 22407 1
25223 22356 22355 1
25224 22355 22392 1
25225 22355 22408 1
25226 22356 22409 1
25227 22356 22410 1
25228 22358 22357 un
25229 22357 22395 1
25230 22359 22358 un
25231 22358 22364 1
25232 22360 22359 un
25233 22359 22361 1
25234 22360 22394 1
25235 22362 22361 1
25236 22361 22397 2
25237 22363 22362 un
25238 22362 22368 un
25239 22364 22363 1
25240 22363 22365 1
25241 22364 22396 2
25242 22366 22365 1
25243 22365 22411 1
25244 22365 22412 1
25245 22367 22366 1
25246 22366 22413 1
25247 22366 22414 1
25248 22368 22367 un
25249 22367 22372 un
25250 22368 22369 un
25251 22370 22369 un
25252 22371 22370 un
25253 22370 22379 un
25254 22372 22371 un
25255 22371 22376 1
25256 22372 22373 1
25257 22374 22373 1
25258 22373 22415 1
25259 22373 22416 1
25260 22375 22374 1
25261 22374 22417 1
25262 22374 22418 1
25263 22376 22375 1
25264 22375 22419 1
25265 22375 22420 1
25266 22376 22377 1
25267 22376 22421 1
25268 22378 22377 1
25269 22377 22422 1
25270 22377 22423 1
25271 22379 22378 un
25272 22378 22383 un
25273 22379 22380 un
25274 22381 22380 un
25275 22380 22424 1
25276 22382 22381 un
25277 22381 22425 1
25278 22383 22382 un
25279 22382 22399 1
25280 22383 22398 1
25281 22384 22385 1
25282 22384 22426 1
25283 22384 22427 1
25284 22385 22428 1
25285 22385 22429 1
25286 22385 22430 1
25287 22386 22431 1
25288 22386 22432 1
25289 22386 22433 1
25290 22387 22434 1
25291 22387 22435 1
25292 22387 22436 1
25293 22388 22437 1
25294 22388 22438 1
25295 22388 22439 1
25296 22389 22440 1
25297 22389 22441 1
25298 22389 22442 1
25299 22390 22443 1
25300 22390 22444 1
25301 22390 22445 1
25302 22391 22446 1
25303 22392 22447 1
25304 22392 22448 1
25305 22392 22449 1
25306 22393 22450 1
25307 22393 22451 1
25308 22393 22452 1
25309 22394 22453 1
25310 22395 22454 1
25311 22398 22455 1
25312 22398 22456 1
25313 22398 22457 1
25314 22399 22458 1
25315 22399 22459 1
25316 22399 22460 1
25317 22461 22462 un
25318 22461 22466 un
25319 22461 22516 1
25320 22463 22462 un
25321 22462 22518 1
25322 22464 22463 un
25323 22463 22470 1
25324 22465 22464 un
25325 22464 22467 1
25326 22466 22465 un
25327 22465 22517 1
25328 22466 22514 1
25329 22468 22467 1
25330 22467 22530 1
25331 22467 22531 1
25332 22469 22468 un
25333 22468 22474 un
25334 22470 22469 1
25335 22469 22471 un
25336 22470 22532 1
25337 22470 22533 1
25338 22472 22471 un
25339 22471 22519 1
25340 22473 22472 un
25341 22472 22520 1
25342 22474 22473 un
25343 22473 22478 un
25344 22474 22475 un
25345 22476 22475 un
25346 22475 22534 1
25347 22477 22476 un
25348 22476 22482 un
25349 22478 22477 un
25350 22477 22479 1
25351 22478 22521 1
25352 22480 22479 1
25353 22479 22486 1
25354 22481 22480 1
25355 22480 22483 1
25356 22482 22481 un
25357 22481 22490 un
25358 22482 22487 un
25359 22484 22483 1
25360 22483 22535 1
25361 22483 22536 1
25362 22485 22484 un
25363 22484 22523 1
25364 22484 22537 1
25365 22486 22485 1
25366 22485 22522 1
25367 22485 22538 1
25368 22486 22539 1
25369 22486 22540 1
25370 22488 22487 un
25371 22487 22525 1
25372 22489 22488 un
25373 22488 22494 1
25374 22490 22489 un
25375 22489 22491 1
25376 22490 22524 1
25377 22492 22491 1
25378 22491 22527 2
25379 22493 22492 un
25380 22492 22498 un
25381 22494 22493 1
25382 22493 22495 1
25383 22494 22526 2
25384 22496 22495 1
25385 22495 22541 1
25386 22495 22542 1
25387 22497 22496 1
25388 22496 22543 1
25389 22496 22544 1
25390 22498 22497 un
25391 22497 22502 un
25392 22498 22499 un
25393 22500 22499 un
25394 22501 22500 un
25395 22500 22509 un
25396 22502 22501 un
25397 22501 22506 1
25398 22502 22503 1
25399 22504 22503 1
25400 22503 22545 1
25401 22503 22546 1
25402 22505 22504 1
25403 22504 22547 1
25404 22504 22548 1
25405 22506 22505 1
25406 22505 22549 1
25407 22505 22550 1
25408 22506 22507 1
25409 22506 22551 1
25410 22508 22507 1
25411 22507 22552 1
25412 22507 22553 1
25413 22509 22508 un
25414 22508 22513 un
25415 22509 22510 un
25416 22511 22510 un
25417 22510 22554 1
25418 22512 22511 un
25419 22511 22555 1
25420 22513 22512 un
25421 22512 22529 1
25422 22513 22528 1
25423 22514 22515 1
25424 22514 22556 1
25425 22514 22557 1
25426 22515 22558 1
25427 22515 22559 1
25428 22515 22560 1
25429 22516 22561 1
25430 22516 22562 1
25431 22516 22563 1
25432 22517 22564 1
25433 22517 22565 1
25434 22517 22566 1
25435 22518 22567 1
25436 22518 22568 1
25437 22518 22569 1
25438 22519 22570 1
25439 22519 22571 1
25440 22519 22572 1
25441 22520 22573 1
25442 22520 22574 1
25443 22520 22575 1
25444 22521 22576 1
25445 22522 22577 1
25446 22522 22578 1
25447 22522 22579 1
25448 22523 22580 1
25449 22523 22581 1
25450 22523 22582 1
25451 22524 22583 1
25452 22525 22584 1
25453 22528 22585 1
25454 22528 22586 1
25455 22528 22587 1
25456 22529 22588 1
25457 22529 22589 1
25458 22529 22590 1
25459 22591 22592 un
25460 22591 22596 un
25461 22591 22646 1
25462 22593 22592 un
25463 22592 22648 1
25464 22594 22593 un
25465 22593 22600 1
25466 22595 22594 un
25467 22594 22597 1
25468 22596 22595 un
25469 22595 22647 1
25470 22596 22644 1
25471 22598 22597 1
25472 22597 22660 1
25473 22597 22661 1
25474 22599 22598 un
25475 22598 22604 un
25476 22600 22599 1
25477 22599 22601 un
25478 22600 22662 1
25479 22600 22663 1
25480 22602 22601 un
25481 22601 22649 1
25482 22603 22602 un
25483 22602 22650 1
25484 22604 22603 un
25485 22603 22608 un
25486 22604 22605 un
25487 22606 22605 un
25488 22605 22664 1
25489 22607 22606 un
25490 22606 22612 un
25491 22608 22607 un
25492 22607 22609 1
25493 22608 22651 1
25494 22610 22609 1
25495 22609 22616 1
25496 22611 22610 1
25497 22610 22613 1
25498 22612 22611 un
25499 22611 22620 un
25500 22612 22617 un
25501 22614 22613 1
25502 22613 22665 1
25503 22613 22666 1
25504 22615 22614 un
25505 22614 22653 1
25506 22614 22667 1
25507 22616 22615 1
25508 22615 22652 1
25509 22615 22668 1
25510 22616 22669 1
25511 22616 22670 1
25512 22618 22617 un
25513 22617 22655 1
25514 22619 22618 un
25515 22618 22624 1
25516 22620 22619 un
25517 22619 22621 1
25518 22620 22654 1
25519 22622 22621 1
25520 22621 22657 2
25521 22623 22622 un
25522 22622 22628 un
25523 22624 22623 1
25524 22623 22625 1
25525 22624 22656 2
25526 22626 22625 1
25527 22625 22671 1
25528 22625 22672 1
25529 22627 22626 1
25530 22626 22673 1
25531 22626 22674 1
25532 22628 22627 un
25533 22627 22632 un
25534 22628 22629 un
25535 22630 22629 un
25536 22631 22630 un
25537 22630 22639 un
25538 22632 22631 un
25539 22631 22636 1
25540 22632 22633 1
25541 22634 22633 1
25542 22633 22675 1
25543 22633 22676 1
25544 22635 22634 1
25545 22634 22677 1
25546 22634 22678 1
25547 22636 22635 1
25548 22635 22679 1
25549 22635 22680 1
25550 22636 22637 1
25551 22636 22681 1
25552 22638 22637 1
25553 22637 22682 1
25554 22637 22683 1
25555 22639 22638 un
25556 22638 22643 un
25557 22639 22640 un
25558 22641 22640 un
25559 22640 22684 1
25560 22642 22641 un
25561 22641 22685 1
25562 22643 22642 un
25563 22642 22659 1
25564 22643 22658 1
25565 22644 22645 1
25566 22644 22686 1
25567 22644 22687 1
25568 22645 22688 1
25569 22645 22689 1
25570 22645 22690 1
25571 22646 22691 1
25572 22646 22692 1
25573 22646 22693 1
25574 22647 22694 1
25575 22647 22695 1
25576 22647 22696 1
25577 22648 22697 1
25578 22648 22698 1
25579 22648 22699 1
25580 22649 22700 1
25581 22649 22701 1
25582 22649 22702 1
25583 22650 22703 1
25584 22650 22704 1
25585 22650 22705 1
25586 22651 22706 1
25587 22652 22707 1
25588 22652 22708 1
25589 22652 22709 1
25590 22653 22710 1
25591 22653 22711 1
25592 22653 22712 1
25593 22654 22713 1
25594 22655 22714 1
25595 22658 22715 1
25596 22658 22716 1
25597 22658 22717 1
25598 22659 22718 1
25599 22659 22719 1
25600 22659 22720 1
25601 22721 22722 un
25602 22721 22726 un
25603 22721 22776 1
25604 22723 22722 un
25605 22722 22778 1
25606 22724 22723 un
25607 22723 22730 1
25608 22725 22724 un
25609 22724 22727 1
25610 22726 22725 un
25611 22725 22777 1
25612 22726 22774 1
25613 22728 22727 1
25614 22727 22790 1
25615 22727 22791 1
25616 22729 22728 un
25617 22728 22734 un
25618 22730 22729 1
25619 22729 22731 un
25620 22730 22792 1
25621 22730 22793 1
25622 22732 22731 un
25623 22731 22779 1
25624 22733 22732 un
25625 22732 22780 1
25626 22734 22733 un
25627 22733 22738 un
25628 22734 22735 un
25629 22736 22735 un
25630 22735 22794 1
25631 22737 22736 un
25632 22736 22742 un
25633 22738 22737 un
25634 22737 22739 1
25635 22738 22781 1
25636 22740 22739 1
25637 22739 22746 1
25638 22741 22740 1
25639 22740 22743 1
25640 22742 22741 un
25641 22741 22750 un
25642 22742 22747 un
25643 22744 22743 1
25644 22743 22795 1
25645 22743 22796 1
25646 22745 22744 un
25647 22744 22783 1
25648 22744 22797 1
25649 22746 22745 1
25650 22745 22782 1
25651 22745 22798 1
25652 22746 22799 1
25653 22746 22800 1
25654 22748 22747 un
25655 22747 22785 1
25656 22749 22748 un
25657 22748 22754 1
25658 22750 22749 un
25659 22749 22751 1
25660 22750 22784 1
25661 22752 22751 1
25662 22751 22787 2
25663 22753 22752 un
25664 22752 22758 un
25665 22754 22753 1
25666 22753 22755 1
25667 22754 22786 2
25668 22756 22755 1
25669 22755 22801 1
25670 22755 22802 1
25671 22757 22756 1
25672 22756 22803 1
25673 22756 22804 1
25674 22758 22757 un
25675 22757 22762 un
25676 22758 22759 un
25677 22760 22759 un
25678 22761 22760 un
25679 22760 22769 un
25680 22762 22761 un
25681 22761 22766 1
25682 22762 22763 1
25683 22764 22763 1
25684 22763 22805 1
25685 22763 22806 1
25686 22765 22764 1
25687 22764 22807 1
25688 22764 22808 1
25689 22766 22765 1
25690 22765 22809 1
25691 22765 22810 1
25692 22766 22767 1
25693 22766 22811 1
25694 22768 22767 1
25695 22767 22812 1
25696 22767 22813 1
25697 22769 22768 un
25698 22768 22773 un
25699 22769 22770 un
25700 22771 22770 un
25701 22770 22814 1
25702 22772 22771 un
25703 22771 22815 1
25704 22773 22772 un
25705 22772 22789 1
25706 22773 22788 1
25707 22774 22775 1
25708 22774 22816 1
25709 22774 22817 1
25710 22775 22818 1
25711 22775 22819 1
25712 22775 22820 1
25713 22776 22821 1
25714 22776 22822 1
25715 22776 22823 1
25716 22777 22824 1
25717 22777 22825 1
25718 22777 22826 1
25719 22778 22827 1
25720 22778 22828 1
25721 22778 22829 1
25722 22779 22830 1
25723 22779 22831 1
25724 22779 22832 1
25725 22780 22833 1
25726 22780 22834 1
25727 22780 22835 1
25728 22781 22836 1
25729 22782 22837 1
25730 22782 22838 1
25731 22782 22839 1
25732 22783 22840 1
25733 22783 22841 1
25734 22783 22842 1
25735 22784 22843 1
25736 22785 22844 1
25737 22788 22845 1
25738 22788 22846 1
25739 22788 22847 1
25740 22789 22848 1
25741 22789 22849 1
25742 22789 22850 1
25743 22851 22852 un
25744 22851 22856 un
25745 22851 22906 1
25746 22853 22852 un
25747 22852 22908 1
25748 22854 22853 un
25749 22853 22860 1
25750 22855 22854 un
25751 22854 22857 1
25752 22856 22855 un
25753 22855 22907 1
25754 22856 22904 1
25755 22858 22857 1
25756 22857 22920 1
25757 22857 22921 1
25758 22859 22858 un
25759 22858 22864 un
25760 22860 22859 1
25761 22859 22861 un
25762 22860 22922 1
25763 22860 22923 1
25764 22862 22861 un
25765 22861 22909 1
25766 22863 22862 un
25767 22862 22910 1
25768 22864 22863 un
25769 22863 22868 un
25770 22864 22865 un
25771 22866 22865 un
25772 22865 22924 1
25773 22867 22866 un
25774 22866 22872 un
25775 22868 22867 un
25776 22867 22869 1
25777 22868 22911 1
25778 22870 22869 1
25779 22869 22876 1
25780 22871 22870 1
25781 22870 22873 1
25782 22872 22871 un
25783 22871 22880 un
25784 22872 22877 un
25785 22874 22873 1
25786 22873 22925 1
25787 22873 22926 1
25788 22875 22874 un
25789 22874 22913 1
25790 22874 22927 1
25791 22876 22875 1
25792 22875 22912 1
25793 22875 22928 1
25794 22876 22929 1
25795 22876 22930 1
25796 22878 22877 un
25797 22877 22915 1
25798 22879 22878 un
25799 22878 22884 1
25800 22880 22879 un
25801 22879 22881 1
25802 22880 22914 1
25803 22882 22881 1
25804 22881 22917 2
25805 22883 22882 un
25806 22882 22888 un
25807 22884 22883 1
25808 22883 22885 1
25809 22884 22916 2
25810 22886 22885 1
25811 22885 22931 1
25812 22885 22932 1
25813 22887 22886 1
25814 22886 22933 1
25815 22886 22934 1
25816 22888 22887 un
25817 22887 22892 un
25818 22888 22889 un
25819 22890 22889 un
25820 22891 22890 un
25821 22890 22899 un
25822 22892 22891 un
25823 22891 22896 1
25824 22892 22893 1
25825 22894 22893 1
25826 22893 22935 1
25827 22893 22936 1
25828 22895 22894 1
25829 22894 22937 1
25830 22894 22938 1
25831 22896 22895 1
25832 22895 22939 1
25833 22895 22940 1
25834 22896 22897 1
25835 22896 22941 1
25836 22898 22897 1
25837 22897 22942 1
25838 22897 22943 1
25839 22899 22898 un
25840 22898 22903 un
25841 22899 22900 un
25842 22901 22900 un
25843 22900 22944 1
25844 22902 22901 un
25845 22901 22945 1
25846 22903 22902 un
25847 22902 22919 1
25848 22903 22918 1
25849 22904 22905 1
25850 22904 22946 1
25851 22904 22947 1
25852 22905 22948 1
25853 22905 22949 1
25854 22905 22950 1
25855 22906 22951 1
25856 22906 22952 1
25857 22906 22953 1
25858 22907 22954 1
25859 22907 22955 1
25860 22907 22956 1
25861 22908 22957 1
25862 22908 22958 1
25863 22908 22959 1
25864 22909 22960 1
25865 22909 22961 1
25866 22909 22962 1
25867 22910 22963 1
25868 22910 22964 1
25869 22910 22965 1
25870 22911 22966 1
25871 22912 22967 1
25872 22912 22968 1
25873 22912 22969 1
25874 22913 22970 1
25875 22913 22971 1
25876 22913 22972 1
25877 22914 22973 1
25878 22915 22974 1
25879 22918 22975 1
25880 22918 22976 1
25881 22918 22977 1
25882 22919 22978 1
25883 22919 22979 1
25884 22919 22980 1
25885 22981 22982 un
25886 22981 22986 un
25887 22981 23036 1
25888 22983 22982 un
25889 22982 23038 1
25890 22984 22983 un
25891 22983 22990 1
25892 22985 22984 un
25893 22984 22987 1
25894 22986 22985 un
25895 22985 23037 1
25896 22986 23034 1
25897 22988 22987 1
25898 22987 23050 1
25899 22987 23051 1
25900 22989 22988 un
25901 22988 22994 un
25902 22990 22989 1
25903 22989 22991 un
25904 22990 23052 1
25905 22990 23053 1
25906 22992 22991 un
25907 22991 23039 1
25908 22993 22992 un
25909 22992 23040 1
25910 22994 22993 un
25911 22993 22998 un
25912 22994 22995 un
25913 22996 22995 un
25914 22995 23054 1
25915 22997 22996 un
25916 22996 23002 un
25917 22998 22997 un
25918 22997 22999 1
25919 22998 23041 1
25920 23000 22999 1
25921 22999 23006 1
25922 23001 23000 1
25923 23000 23003 1
25924 23002 23001 un
25925 23001 23010 un
25926 23002 23007 un
25927 23004 23003 1
25928 23003 23055 1
25929 23003 23056 1
25930 23005 23004 un
25931 23004 23043 1
25932 23004 23057 1
25933 23006 23005 1
25934 23005 23042 1
25935 23005 23058 1
25936 23006 23059 1
25937 23006 23060 1
25938 23008 23007 un
25939 23007 23045 1
25940 23009 23008 un
25941 23008 23014 1
25942 23010 23009 un
25943 23009 23011 1
25944 23010 23044 1
25945 23012 23011 1
25946 23011 23047 2
25947 23013 23012 un
25948 23012 23018 un
25949 23014 23013 1
25950 23013 23015 1
25951 23014 23046 2
25952 23016 23015 1
25953 23015 23061 1
25954 23015 23062 1
25955 23017 23016 1
25956 23016 23063 1
25957 23016 23064 1
25958 23018 23017 un
25959 23017 23022 un
25960 23018 23019 un
25961 23020 23019 un
25962 23021 23020 un
25963 23020 23029 un
25964 23022 23021 un
25965 23021 23026 1
25966 23022 23023 1
25967 23024 23023 1
25968 23023 23065 1
25969 23023 23066 1
25970 23025 23024 1
25971 23024 23067 1
25972 23024 23068 1
25973 23026 23025 1
25974 23025 23069 1
25975 23025 23070 1
25976 23026 23027 1
25977 23026 23071 1
25978 23028 23027 1
25979 23027 23072 1
25980 23027 23073 1
25981 23029 23028 un
25982 23028 23033 un
25983 23029 23030 un
25984 23031 23030 un
25985 23030 23074 1
25986 23032 23031 un
25987 23031 23075 1
25988 23033 23032 un
25989 23032 23049 1
25990 23033 23048 1
25991 23034 23035 1
25992 23034 23076 1
25993 23034 23077 1
25994 23035 23078 1
25995 23035 23079 1
25996 23035 23080 1
25997 23036 23081 1
25998 23036 23082 1
25999 23036 23083 1
26000 23037 23084 1
26001 23037 23085 1
26002 23037 23086 1
26003 23038 23087 1
26004 23038 23088 1
26005 23038 23089 1
26006 23039 23090 1
26007 23039 23091 1
26008 23039 23092 1
26009 23040 23093 1
26010 23040 23094 1
26011 23040 23095 1
26012 23041 23096 1
26013 23042 23097 1
26014 23042 23098 1
26015 23042 23099 1
26016 23043 23100 1
26017 23043 23101 1
26018 23043 23102 1
26019 23044 23103 1
26020 23045 23104 1
26021 23048 23105 1
26022 23048 23106 1
26023 23048 23107 1
26024 23049 23108 1
26025 23049 23109 1
26026 23049 23110 1
26027 23111 23112 un
26028 23111 23116 un
26029 23111 23166 1
26030 23113 23112 un
26031 23112 23168 1
26032 23114 23113 un
26033 23113 23120 1
26034 23115 23114 un
26035 23114 23117 1
26036 23116 23115 un
26037 23115 23167 1
26038 23116 23164 1
26039 23118 23117 1
26040 23117 23180 1
26041 23117 23181 1
26042 23119 23118 un
26043 23118 23124 un
26044 23120 23119 1
26045 23119 23121 un
26046 23120 23182 1
26047 23120 23183 1
26048 23122 23121 un
26049 23121 23169 1
26050 23123 23122 un
26051 23122 23170 1
26052 23124 23123 un
26053 23123 23128 un
26054 23124 23125 un
26055 23126 23125 un
26056 23125 23184 1
26057 23127 23126 un
26058 23126 23132 un
26059 23128 23127 un
26060 23127 23129 1
26061 23128 23171 1
26062 23130 23129 1
26063 23129 23136 1
26064 23131 23130 1
26065 23130 23133 1
26066 23132 23131 un
26067 23131 23140 un
26068 23132 23137 un
26069 23134 23133 1
26070 23133 23185 1
26071 23133 23186 1
26072 23135 23134 un
26073 23134 23173 1
26074 23134 23187 1
26075 23136 23135 1
26076 23135 23172 1
26077 23135 23188 1
26078 23136 23189 1
26079 23136 23190 1
26080 23138 23137 un
26081 23137 23175 1
26082 23139 23138 un
26083 23138 23144 1
26084 23140 23139 un
26085 23139 23141 1
26086 23140 23174 1
26087 23142 23141 1
26088 23141 23177 2
26089 23143 23142 un
26090 23142 23148 un
26091 23144 23143 1
26092 23143 23145 1
26093 23144 23176 2
26094 23146 23145 1
26095 23145 23191 1
26096 23145 23192 1
26097 23147 23146 1
26098 23146 23193 1
26099 23146 23194 1
26100 23148 23147 un
26101 23147 23152 un
26102 23148 23149 un
26103 23150 23149 un
26104 23151 23150 un
26105 23150 23159 un
26106 23152 23151 un
26107 23151 23156 1
26108 23152 23153 1
26109 23154 23153 1
26110 23153 23195 1
26111 23153 23196 1
26112 23155 23154 1
26113 23154 23197 1
26114 23154 23198 1
26115 23156 23155 1
26116 23155 23199 1
26117 23155 23200 1
26118 23156 23157 1
26119 23156 23201 1
26120 23158 23157 1
26121 23157 23202 1
26122 23157 23203 1
26123 23159 23158 un
26124 23158 23163 un
26125 23159 23160 un
26126 23161 23160 un
26127 23160 23204 1
26128 23162 23161 un
26129 23161 23205 1
26130 23163 23162 un
26131 23162 23179 1
26132 23163 23178 1
26133 23164 23165 1
26134 23164 23206 1
26135 23164 23207 1
26136 23165 23208 1
26137 23165 23209 1
26138 23165 23210 1
26139 23166 23211 1
26140 23166 23212 1
26141 23166 23213 1
26142 23167 23214 1
26143 23167 23215 1
26144 23167 23216 1
26145 23168 23217 1
26146 23168 23218 1
26147 23168 23219 1
26148 23169 23220 1
26149 23169 23221 1
26150 23169 23222 1
26151 23170 23223 1
26152 23170 23224 1
26153 23170 23225 1
26154 23171 23226 1
26155 23172 23227 1
26156 23172 23228 1
26157 23172 23229 1
26158 23173 23230 1
26159 23173 23231 1
26160 23173 23232 1
26161 23174 23233 1
26162 23175 23234 1
26163 23178 23235 1
26164 23178 23236 1
26165 23178 23237 1
26166 23179 23238 1
26167 23179 23239 1
26168 23179 23240 1
26169 23241 23242 un
26170 23241 23246 un
26171 23241 23296 1
26172 23243 23242 un
26173 23242 23298 1
26174 23244 23243 un
26175 23243 23250 1
26176 23245 23244 un
26177 23244 23247 1
26178 23246 23245 un
26179 23245 23297 1
26180 23246 23294 1
26181 23248 23247 1
26182 23247 23310 1
26183 23247 23311 1
26184 23249 23248 un
26185 23248 23254 un
26186 23250 23249 1
26187 23249 23251 un
26188 23250 23312 1
26189 23250 23313 1
26190 23252 23251 un
26191 23251 23299 1
26192 23253 23252 un
26193 23252 23300 1
26194 23254 23253 un
26195 23253 23258 un
26196 23254 23255 un
26197 23256 23255 un
26198 23255 23314 1
26199 23257 23256 un
26200 23256 23262 un
26201 23258 23257 un
26202 23257 23259 1
26203 23258 23301 1
26204 23260 23259 1
26205 23259 23266 1
26206 23261 23260 1
26207 23260 23263 1
26208 23262 23261 un
26209 23261 23270 un
26210 23262 23267 un
26211 23264 23263 1
26212 23263 23315 1
26213 23263 23316 1
26214 23265 23264 un
26215 23264 23303 1
26216 23264 23317 1
26217 23266 23265 1
26218 23265 23302 1
26219 23265 23318 1
26220 23266 23319 1
26221 23266 23320 1
26222 23268 23267 un
26223 23267 23305 1
26224 23269 23268 un
26225 23268 23274 1
26226 23270 23269 un
26227 23269 23271 1
26228 23270 23304 1
26229 23272 23271 1
26230 23271 23307 2
26231 23273 23272 un
26232 23272 23278 un
26233 23274 23273 1
26234 23273 23275 1
26235 23274 23306 2
26236 23276 23275 1
26237 23275 23321 1
26238 23275 23322 1
26239 23277 23276 1
26240 23276 23323 1
26241 23276 23324 1
26242 23278 23277 un
26243 23277 23282 un
26244 23278 23279 un
26245 23280 23279 un
26246 23281 23280 un
26247 23280 23289 un
26248 23282 23281 un
26249 23281 23286 1
26250 23282 23283 1
26251 23284 23283 1
26252 23283 23325 1
26253 23283 23326 1
26254 23285 23284 1
26255 23284 23327 1
26256 23284 23328 1
26257 23286 23285 1
26258 23285 23329 1
26259 23285 23330 1
26260 23286 23287 1
26261 23286 23331 1
26262 23288 23287 1
26263 23287 23332 1
26264 23287 23333 1
26265 23289 23288 un
26266 23288 23293 un
26267 23289 23290 un
26268 23291 23290 un
26269 23290 23334 1
26270 23292 23291 un
26271 23291 23335 1
26272 23293 23292 un
26273 23292 23309 1
26274 23293 23308 1
26275 23294 23295 1
26276 23294 23336 1
26277 23294 23337 1
26278 23295 23338 1
26279 23295 23339 1
26280 23295 23340 1
26281 23296 23341 1
26282 23296 23342 1
26283 23296 23343 1
26284 23297 23344 1
26285 23297 23345 1
26286 23297 23346 1
26287 23298 23347 1
26288 23298 23348 1
26289 23298 23349 1
26290 23299 23350 1
26291 23299 23351 1
26292 23299 23352 1
26293 23300 23353 1
26294 23300 23354 1
26295 23300 23355 1
26296 23301 23356 1
26297 23302 23357 1
26298 23302 23358 1
26299 23302 23359 1
26300 23303 23360 1
26301 23303 23361 1
26302 23303 23362 1
26303 23304 23363 1
26304 23305 23364 1
26305 23308 23365 1
26306 23308 23366 1
26307 23308 23367 1
26308 23309 23368 1
26309 23309 23369 1
26310 23309 23370 1
26311 23371 23372 un
26312 23371 23376 un
26313 23371 23426 1
26314 23373 23372 un
26315 23372 23428 1
26316 23374 23373 un
26317 23373 23380 1
26318 23375 23374 un
26319 23374 23377 1
26320 23376 23375 un
26321 23375 23427 1
26322 23376 23424 1
26323 23378 23377 1
26324 23377 23440 1
26325 23377 23441 1
26326 23379 23378 un
26327 23378 23384 un
26328 23380 23379 1
26329 23379 23381 un
26330 23380 23442 1
26331 23380 23443 1
26332 23382 23381 un
26333 23381 23429 1
26334 23383 23382 un
26335 23382 23430 1
26336 23384 23383 un
26337 23383 23388 un
26338 23384 23385 un
26339 23386 23385 un
26340 23385 23444 1
26341 23387 23386 un
26342 23386 23392 un
26343 23388 23387 un
26344 23387 23389 1
26345 23388 23431 1
26346 23390 23389 1
26347 23389 23396 1
26348 23391 23390 1
26349 23390 23393 1
26350 23392 23391 un
26351 23391 23400 un
26352 23392 23397 un
26353 23394 23393 1
26354 23393 23445 1
26355 23393 23446 1
26356 23395 23394 un
26357 23394 23433 1
26358 23394 23447 1
26359 23396 23395 1
26360 23395 23432 1
26361 23395 23448 1
26362 23396 23449 1
26363 23396 23450 1
26364 23398 23397 un
26365 23397 23435 1
26366 23399 23398 un
26367 23398 23404 1
26368 23400 23399 un
26369 23399 23401 1
26370 23400 23434 1
26371 23402 23401 1
26372 23401 23437 2
26373 23403 23402 un
26374 23402 23408 un
26375 23404 23403 1
26376 23403 23405 1
26377 23404 23436 2
26378 23406 23405 1
26379 23405 23451 1
26380 23405 23452 1
26381 23407 23406 1
26382 23406 23453 1
26383 23406 23454 1
26384 23408 23407 un
26385 23407 23412 un
26386 23408 23409 un
26387 23410 23409 un
26388 23411 23410 un
26389 23410 23419 un
26390 23412 23411 un
26391 23411 23416 1
26392 23412 23413 1
26393 23414 23413 1
26394 23413 23455 1
26395 23413 23456 1
26396 23415 23414 1
26397 23414 23457 1
26398 23414 23458 1
26399 23416 23415 1
26400 23415 23459 1
26401 23415 23460 1
26402 23416 23417 1
26403 23416 23461 1
26404 23418 23417 1
26405 23417 23462 1
26406 23417 23463 1
26407 23419 23418 un
26408 23418 23423 un
26409 23419 23420 un
26410 23421 23420 un
26411 23420 23464 1
26412 23422 23421 un
26413 23421 23465 1
26414 23423 23422 un
26415 23422 23439 1
26416 23423 23438 1
26417 23424 23425 1
26418 23424 23466 1
26419 23424 23467 1
26420 23425 23468 1
26421 23425 23469 1
26422 23425 23470 1
26423 23426 23471 1
26424 23426 23472 1
26425 23426 23473 1
26426 23427 23474 1
26427 23427 23475 1
26428 23427 23476 1
26429 23428 23477 1
26430 23428 23478 1
26431 23428 23479 1
26432 23429 23480 1
26433 23429 23481 1
26434 23429 23482 1
26435 23430 23483 1
26436 23430 23484 1
26437 23430 23485 1
26438 23431 23486 1
26439 23432 23487 1
26440 23432 23488 1
26441 23432 23489 1
26442 23433 23490 1
26443 23433 23491 1
26444 23433 23492 1
26445 23434 23493 1
26446 23435 23494 1
26447 23438 23495 1
26448 23438 23496 1
26449 23438 23497 1
26450 23439 23498 1
26451 23439 23499 1
26452 23439 23500 1
26453 23501 23502 un
26454 23501 23506 un
26455 23501 23556 1
26456 23503 23502 un
26457 23502 23558 1
26458 23504 23503 un
26459 23503 23510 1
26460 23505 23504 un
26461 23504 23507 1
26462 23506 23505 un
26463 23505 23557 1
26464 23506 23554 1
26465 23508 23507 1
26466 23507 23570 1
26467 23507 23571 1
26468 23509 23508 un
26469 23508 23514 un
26470 23510 23509 1
26471 23509 23511 un
26472 23510 23572 1
26473 23510 23573 1
26474 23512 23511 un
26475 23511 23559 1
26476 23513 23512 un
26477 23512 23560 1
26478 23514 23513 un
26479 23513 23518 un
26480 23514 23515 un
26481 23516 23515 un
26482 23515 23574 1
26483 23517 23516 un
26484 23516 23522 un
26485 23518 23517 un
26486 23517 23519 1
26487 23518 23561 1
26488 23520 23519 1
26489 23519 23526 1
26490 23521 23520 1
26491 23520 23523 1
26492 23522 23521 un
26493 23521 23530 un
26494 23522 23527 un
26495 23524 23523 1
26496 23523 23575 1
26497 23523 23576 1
26498 23525 23524 un
26499 23524 23563 1
26500 23524 23577 1
26501 23526 23525 1
26502 23525 23562 1
26503 23525 23578 1
26504 23526 23579 1
26505 23526 23580 1
26506 23528 23527 un
26507 23527 23565 1
26508 23529 23528 un
26509 23528 23534 1
26510 23530 23529 un
26511 23529 23531 1
26512 23530 23564 1
26513 23532 23531 1
26514 23531 23567 2
26515 23533 23532 un
26516 23532 23538 un
26517 23534 23533 1
26518 23533 23535 1
26519 23534 23566 2
26520 23536 23535 1
26521 23535 23581 1
26522 23535 23582 1
26523 23537 23536 1
26524 23536 23583 1
26525 23536 23584 1
26526 23538 23537 un
26527 23537 23542 un
26528 23538 23539 un
26529 23540 23539 un
26530 23541 23540 un
26531 23540 23549 un
26532 23542 23541 un
26533 23541 23546 1
26534 23542 23543 1
26535 23544 23543 1
26536 23543 23585 1
26537 23543 23586 1
26538 23545 23544 1
26539 23544 23587 1
26540 23544 23588 1
26541 23546 23545 1
26542 23545 23589 1
26543 23545 23590 1
26544 23546 23547 1
26545 23546 23591 1
26546 23548 23547 1
26547 23547 23592 1
26548 23547 23593 1
26549 23549 23548 un
26550 23548 23553 un
26551 23549 23550 un
26552 23551 23550 un
26553 23550 23594 1
26554 23552 23551 un
26555 23551 23595 1
26556 23553 23552 un
26557 23552 23569 1
26558 23553 23568 1
26559 23554 23555 1
26560 23554 23596 1
26561 23554 23597 1
26562 23555 23598 1
26563 23555 23599 1
26564 23555 23600 1
26565 23556 23601 1
26566 23556 23602 1
26567 23556 23603 1
26568 23557 23604 1
26569 23557 23605 1
26570 23557 23606 1
26571 23558 23607 1
26572 23558 23608 1
26573 23558 23609 1
26574 23559 23610 1
26575 23559 23611 1
26576 23559 23612 1
26577 23560 23613 1
26578 23560 23614 1
26579 23560 23615 1
26580 23561 23616 1
26581 23562 23617 1
26582 23562 23618 1
26583 23562 23619 1
26584 23563 23620 1
26585 23563 23621 1
26586 23563 23622 1
26587 23564 23623 1
26588 23565 23624 1
26589 23568 23625 1
26590 23568 23626 1
26591 23568 23627 1
26592 23569 23628 1
26593 23569 23629 1
26594 23569 23630 1
26595 23631 23632 un
26596 23631 23636 un
26597 23631 23686 1
26598 23633 23632 un
26599 23632 23688 1
26600 23634 23633 un
26601 23633 23640 1
26602 23635 23634 un
26603 23634 23637 1
26604 23636 23635 un
26605 23635 23687 1
26606 23636 23684 1
26607 23638 23637 1
26608 23637 23700 1
26609 23637 23701 1
26610 23639 23638 un
26611 23638 23644 un
26612 23640 23639 1
26613 23639 23641 un
26614 23640 23702 1
26615 23640 23703 1
26616 23642 23641 un
26617 23641 23689 1
26618 23643 23642 un
26619 23642 23690 1
26620 23644 23643 un
26621 23643 23648 un
26622 23644 23645 un
26623 23646 23645 un
26624 23645 23704 1
26625 23647 23646 un
26626 23646 23652 un
26627 23648 23647 un
26628 23647 23649 1
26629 23648 23691 1
26630 23650 23649 1
26631 23649 23656 1
26632 23651 23650 1
26633 23650 23653 1
26634 23652 23651 un
26635 23651 23660 un
26636 23652 23657 un
26637 23654 23653 1
26638 23653 23705 1
26639 23653 23706 1
26640 23655 23654 un
26641 23654 23693 1
26642 23654 23707 1
26643 23656 23655 1
26644 23655 23692 1
26645 23655 23708 1
26646 23656 23709 1
26647 23656 23710 1
26648 23658 23657 un
26649 23657 23695 1
26650 23659 23658 un
26651 23658 23664 1
26652 23660 23659 un
26653 23659 23661 1
26654 23660 23694 1
26655 23662 23661 1
26656 23661 23697 2
26657 23663 23662 un
26658 23662 23668 un
26659 23664 23663 1
26660 23663 23665 1
26661 23664 23696 2
26662 23666 23665 1
26663 23665 23711 1
26664 23665 23712 1
26665 23667 23666 1
26666 23666 23713 1
26667 23666 23714 1
26668 23668 23667 un
26669 23667 23672 un
26670 23668 23669 un
26671 23670 23669 un
26672 23671 23670 un
26673 23670 23679 un
26674 23672 23671 un
26675 23671 23676 1
26676 23672 23673 1
26677 23674 23673 1
26678 23673 23715 1
26679 23673 23716 1
26680 23675 23674 1
26681 23674 23717 1
26682 23674 23718 1
26683 23676 23675 1
26684 23675 23719 1
26685 23675 23720 1
26686 23676 23677 1
26687 23676 23721 1
26688 23678 23677 1
26689 23677 23722 1
26690 23677 23723 1
26691 23679 23678 un
26692 23678 23683 un
26693 23679 23680 un
26694 23681 23680 un
26695 23680 23724 1
26696 23682 23681 un
26697 23681 23725 1
26698 23683 23682 un
26699 23682 23699 1
26700 23683 23698 1
26701 23684 23685 1
26702 23684 23726 1
26703 23684 23727 1
26704 23685 23728 1
26705 23685 23729 1
26706 23685 23730 1
26707 23686 23731 1
26708 23686 23732 1
26709 23686 23733 1
26710 23687 23734 1
26711 23687 23735 1
26712 23687 23736 1
26713 23688 23737 1
26714 23688 23738 1
26715 23688 23739 1
26716 23689 23740 1
26717 23689 23741 1
26718 23689 23742 1
26719 23690 23743 1
26720 23690 23744 1
26721 23690 23745 1
26722 23691 23746 1
26723 23692 23747 1
26724 23692 23748 1
26725 23692 23749 1
26726 23693 23750 1
26727 23693 23751 1
26728 23693 23752 1
26729 23694 23753 1
26730 23695 23754 1
26731 23698 23755 1
26732 23698 23756 1
26733 23698 23757 1
26734 23699 23758 1
26735 23699 23759 1
26736 23699 23760 1
26737 23761 23762 un
26738 23761 23766 un
26739 23761 23816 1
26740 23763 23762 un
26741 23762 23818 1
26742 23764 23763 un
26743 23763 23770 1
26744 23765 23764 un
26745 23764 23767 1
26746 23766 23765 un
26747 23765 23817 1
26748 23766 23814 1
26749 23768 23767 1
26750 23767 23830 1
26751 23767 23831 1
26752 23769 23768 un
26753 23768 23774 un
26754 23770 23769 1
26755 23769 23771 un
26756 23770 23832 1
26757 23770 23833 1
26758 23772 23771 un
26759 23771 23819 1
26760 23773 23772 un
26761 23772 23820 1
26762 23774 23773 un
26763 23773 23778 un
26764 23774 23775 un
26765 23776 23775 un
26766 23775 23834 1
26767 23777 23776 un
26768 23776 23782 un
26769 23778 23777 un
26770 23777 23779 1
26771 23778 23821 1
26772 23780 23779 1
26773 23779 23786 1
26774 23781 23780 1
26775 23780 23783 1
26776 23782 23781 un
26777 23781 23790 un
26778 23782 23787 un
26779 23784 23783 1
26780 23783 23835 1
26781 23783 23836 1
26782 23785 23784 un
26783 23784 23823 1
26784 23784 23837 1
26785 23786 23785 1
26786 23785 23822 1
26787 23785 23838 1
26788 23786 23839 1
26789 23786 23840 1
26790 23788 23787 un
26791 23787 23825 1
26792 23789 23788 un
26793 23788 23794 1
26794 23790 23789 un
26795 23789 23791 1
26796 23790 23824 1
26797 23792 23791 1
26798 23791 23827 2
26799 23793 23792 un
26800 23792 23798 un
26801 23794 23793 1
26802 23793 23795 1
26803 23794 23826 2
26804 23796 23795 1
26805 23795 23841 1
26806 23795 23842 1
26807 23797 23796 1
26808 23796 23843 1
26809 23796 23844 1
26810 23798 23797 un
26811 23797 23802 un
26812 23798 23799 un
26813 23800 23799 un
26814 23801 23800 un
26815 23800 23809 un
26816 23802 23801 un
26817 23801 23806 1
26818 23802 23803 1
26819 23804 23803 1
26820 23803 23845 1
26821 23803 23846 1
26822 23805 23804 1
26823 23804 23847 1
26824 23804 23848 1
26825 23806 23805 1
26826 23805 23849 1
26827 23805 23850 1
26828 23806 23807 1
26829 23806 23851 1
26830 23808 23807 1
26831 23807 23852 1
26832 23807 23853 1
26833 23809 23808 un
26834 23808 23813 un
26835 23809 23810 un
26836 23811 23810 un
26837 23810 23854 1
26838 23812 23811 un
26839 23811 23855 1
26840 23813 23812 un
26841 23812 23829 1
26842 23813 23828 1
26843 23814 23815 1
26844 23814 23856 1
26845 23814 23857 1
26846 23815 23858 1
26847 23815 23859 1
26848 23815 23860 1
26849 23816 23861 1
26850 23816 23862 1
26851 23816 23863 1
26852 23817 23864 1
26853 23817 23865 1
26854 23817 23866 1
26855 23818 23867 1
26856 23818 23868 1
26857 23818 23869 1
26858 23819 23870 1
26859 23819 23871 1
26860 23819 23872 1
26861 23820 23873 1
26862 23820 23874 1
26863 23820 23875 1
26864 23821 23876 1
26865 23822 23877 1
26866 23822 23878 1
26867 23822 23879 1
26868 23823 23880 1
26869 23823 23881 1
26870 23823 23882 1
26871 23824 23883 1
26872 23825 23884 1
26873 23828 23885 1
26874 23828 23886 1
26875 23828 23887 1
26876 23829 23888 1
26877 23829 23889 1
26878 23829 23890 1
26879 23891 23892 un
26880 23891 23896 un
26881 23891 23946 1
26882 23893 23892 un
26883 23892 23948 1
26884 23894 23893 un
26885 23893 23900 1
26886 23895 23894 un
26887 23894 23897 1
26888 23896 23895 un
26889 23895 23947 1
26890 23896 23944 1
26891 23898 23897 1
26892 23897 23960 1
26893 23897 23961 1
26894 23899 23898 un
26895 23898 23904 un
26896 23900 23899 1
26897 23899 23901 un
26898 23900 23962 1
26899 23900 23963 1
26900 23902 23901 un
26901 23901 23949 1
26902 23903 23902 un
26903 23902 23950 1
26904 23904 23903 un
26905 23903 23908 un
26906 23904 23905 un
26907 23906 23905 un
26908 23905 23964 1
26909 23907 23906 un
26910 23906 23912 un
26911 23908 23907 un
26912 23907 23909 1
26913 23908 23951 1
26914 23910 23909 1
26915 23909 23916 1
26916 23911 23910 1
26917 23910 23913 1
26918 23912 23911 un
26919 23911 23920 un
26920 23912 23917 un
26921 23914 23913 1
26922 23913 23965 1
26923 23913 23966 1
26924 23915 23914 un
26925 23914 23953 1
26926 23914 23967 1
26927 23916 23915 1
26928 23915 23952 1
26929 23915 23968 1
26930 23916 23969 1
26931 23916 23970 1
26932 23918 23917 un
26933 23917 23955 1
26934 23919 23918 un
26935 23918 23924 1
26936 23920 23919 un
26937 23919 23921 1
26938 23920 23954 1
26939 23922 23921 1
26940 23921 23957 2
26941 23923 23922 un
26942 23922 23928 un
26943 23924 23923 1
26944 23923 23925 1
26945 23924 23956 2
26946 23926 23925 1
26947 23925 23971 1
26948 23925 23972 1
26949 23927 23926 1
26950 23926 23973 1
26951 23926 23974 1
26952 23928 23927 un
26953 23927 23932 un
26954 23928 23929 un
26955 23930 23929 un
26956 23931 23930 un
26957 23930 23939 un
26958 23932 23931 un
26959 23931 23936 1
26960 23932 23933 1
26961 23934 23933 1
26962 23933 23975 1
26963 23933 23976 1
26964 23935 23934 1
26965 23934 23977 1
26966 23934 23978 1
26967 23936 23935 1
26968 23935 23979 1
26969 23935 23980 1
26970 23936 23937 1
26971 23936 23981 1
26972 23938 23937 1
26973 23937 23982 1
26974 23937 23983 1
26975 23939 23938 un
26976 23938 23943 un
26977 23939 23940 un
26978 23941 23940 un
26979 23940 23984 1
26980 23942 23941 un
26981 23941 23985 1
26982 23943 23942 un
26983 23942 23959 1
26984 23943 23958 1
26985 23944 23945 1
26986 23944 23986 1
26987 23944 23987 1
26988 23945 23988 1
26989 23945 23989 1
26990 23945 23990 1
26991 23946 23991 1
26992 23946 23992 1
26993 23946 23993 1
26994 23947 23994 1
26995 23947 23995 1
26996 23947 23996 1
26997 23948 23997 1
26998 23948 23998 1
26999 23948 23999 1
27000 23949 24000 1
27001 23949 24001 1
27002 23949 24002 1
27003 23950 24003 1
27004 23950 24004 1
27005 23950 24005 1
27006 23951 24006 1
27007 23952 24007 1
27008 23952 24008 1
27009 23952 24009 1
27010 23953 24010 1
27011 23953 24011 1
27012 23953 24012 1
27013 23954 24013 1
27014 23955 24014 1
27015 23958 24015 1
27016 23958 24016 1
27017 23958 24017 1
27018 23959 24018 1
27019 23959 24019 1
27020 23959 24020 1
27021 24021 24022 am
27022 24026 24021 am
27023 24021 24073 1
27024 24022 24023 am
27025 24022 24081 1
27026 24023 24024 am
27027 24023 24029 1
27028 24024 24025 am
27029 24024 24027 1
27030 24025 24026 am
27031 24025 24082 1
27032 24026 24074 1
27033 24027 24028 am
27034 24027 24033 am
27035 24028 24029 1
27036 24028 24030 am
27037 24029 24083 1
27038 24029 24084 1
27039 24030 24031 am
27040 24030 24043 am
27041 24031 24032 am
27042 24031 24040 am
27043 24032 24033 am
27044 24032 24037 1
27045 24033 24034 1
27046 24034 24035 1
27047 24034 24085 1
27048 24034 24086 1
27049 24035 24036 1
27050 24035 24087 1
27051 24035 24088 1
27052 24036 24037 1
27053 24036 24089 1
27054 24036 24090 1
27055 24037 24038 am
27056 24038 24039 am
27057 24038 24047 1
27058 24039 24040 am
27059 24039 24044 1
27060 24040 24041 am
27061 24041 24042 am
27062 24041 24061 am
27063 24042 24043 am
27064 24042 24059 1
27065 24043 24075 1
27066 24044 24045 1
27067 24044 24091 1
27068 24044 24120 1
27069 24045 24046 am
27070 24045 24051 am
27071 24046 24047 1
27072 24046 24048 am
27073 24047 24092 1
27074 24047 24121 1
27075 24048 24049 am
27076 24048 24079 1
27077 24049 24050 am
27078 24049 24055 1
27079 24050 24051 am
27080 24050 24052 1
27081 24051 24056 am
27082 24052 24053 1
27083 24052 24058 am
27084 24053 24054 1
27085 24053 24093 1
27086 24053 24094 1
27087 24054 24055 1
27088 24054 24095 1
27089 24054 24096 1
27090 24055 24097 1
27091 24055 24098 1
27092 24056 24057 am
27093 24056 24099 1
27094 24057 24058 am
27095 24057 24078 1
27096 24058 24100 1
27097 24059 24060 1
27098 24059 24101 1
27099 24059 24102 1
27100 24060 24061 am
27101 24060 24065 am
27102 24061 24062 am
27103 24062 24063 am
27104 24062 24103 1
27105 24063 24064 am
27106 24063 24072 am
27107 24064 24065 am
27108 24064 24069 am
27109 24065 24066 am
27110 24066 24067 am
27111 24066 24104 1
27112 24067 24068 am
27113 24067 24076 1
27114 24068 24069 am
27115 24068 24105 1
27116 24069 24070 am
27117 24070 24071 am
27118 24070 24080 1
27119 24071 24072 am
27120 24071 24106 1
27121 24072 24107 1
27122 24073 24108 1
27123 24074 24109 1
27124 24074 24110 1
27125 24074 24111 1
27126 24075 24112 1
27127 24076 24077 1
27128 24076 24113 1
27129 24076 24122 1
27130 24077 24114 1
27131 24077 24115 1
27132 24077 24116 1
27133 24078 24117 1
27134 24079 24118 1
27135 24080 24119 1
27136 24123 24124 am
27137 24128 24123 am
27138 24123 24175 1
27139 24124 24125 am
27140 24124 24183 1
27141 24125 24126 am
27142 24125 24131 1
27143 24126 24127 am
27144 24126 24129 1
27145 24127 24128 am
27146 24127 24184 1
27147 24128 24176 1
27148 24129 24130 am
27149 24129 24135 am
27150 24130 24131 1
27151 24130 24132 am
27152 24131 24185 1
27153 24131 24186 1
27154 24132 24133 am
27155 24132 24145 am
27156 24133 24134 am
27157 24133 24142 am
27158 24134 24135 am
27159 24134 24139 1
27160 24135 24136 1
27161 24136 24137 1
27162 24136 24187 1
27163 24136 24188 1
27164 24137 24138 1
27165 24137 24189 1
27166 24137 24190 1
27167 24138 24139 1
27168 24138 24191 1
27169 24138 24192 1
27170 24139 24140 am
27171 24140 24141 am
27172 24140 24149 1
27173 24141 24142 am
27174 24141 24146 1
27175 24142 24143 am
27176 24143 24144 am
27177 24143 24163 am
27178 24144 24145 am
27179 24144 24161 1
27180 24145 24177 1
27181 24146 24147 1
27182 24146 24193 1
27183 24146 24222 1
27184 24147 24148 am
27185 24147 24153 am
27186 24148 24149 1
27187 24148 24150 am
27188 24149 24194 1
27189 24149 24223 1
27190 24150 24151 am
27191 24150 24181 1
27192 24151 24152 am
27193 24151 24157 1
27194 24152 24153 am
27195 24152 24154 1
27196 24153 24158 am
27197 24154 24155 1
27198 24154 24160 am
27199 24155 24156 1
27200 24155 24195 1
27201 24155 24196 1
27202 24156 24157 1
27203 24156 24197 1
27204 24156 24198 1
27205 24157 24199 1
27206 24157 24200 1
27207 24158 24159 am
27208 24158 24201 1
27209 24159 24160 am
27210 24159 24180 1
27211 24160 24202 1
27212 24161 24162 1
27213 24161 24203 1
27214 24161 24204 1
27215 24162 24163 am
27216 24162 24167 am
27217 24163 24164 am
27218 24164 24165 am
27219 24164 24205 1
27220 24165 24166 am
27221 24165 24174 am
27222 24166 24167 am
27223 24166 24171 am
27224 24167 24168 am
27225 24168 24169 am
27226 24168 24206 1
27227 24169 24170 am
27228 24169 24178 1
27229 24170 24171 am
27230 24170 24207 1
27231 24171 24172 am
27232 24172 24173 am
27233 24172 24182 1
27234 24173 24174 am
27235 24173 24208 1
27236 24174 24209 1
27237 24175 24210 1
27238 24176 24211 1
27239 24176 24212 1
27240 24176 24213 1
27241 24177 24214 1
27242 24178 24179 1
27243 24178 24215 1
27244 24178 24224 1
27245 24179 24216 1
27246 24179 24217 1
27247 24179 24218 1
27248 24180 24219 1
27249 24181 24220 1
27250 24182 24221 1
27251 24225 24226 am
27252 24230 24225 am
27253 24225 24277 1
27254 24226 24227 am
27255 24226 24285 1
27256 24227 24228 am
27257 24227 24233 1
27258 24228 24229 am
27259 24228 24231 1
27260 24229 24230 am
27261 24229 24286 1
27262 24230 24278 1
27263 24231 24232 am
27264 24231 24237 am
27265 24232 24233 1
27266 24232 24234 am
27267 24233 24287 1
27268 24233 24288 1
27269 24234 24235 am
27270 24234 24247 am
27271 24235 24236 am
27272 24235 24244 am
27273 24236 24237 am
27274 24236 24241 1
27275 24237 24238 1
27276 24238 24239 1
27277 24238 24289 1
27278 24238 24290 1
27279 24239 24240 1
27280 24239 24291 1
27281 24239 24292 1
27282 24240 24241 1
27283 24240 24293 1
27284 24240 24294 1
27285 24241 24242 am
27286 24242 24243 am
27287 24242 24251 1
27288 24243 24244 am
27289 24243 24248 1
27290 24244 24245 am
27291 24245 24246 am
27292 24245 24265 am
27293 24246 24247 am
27294 24246 24263 1
27295 24247 24279 1
27296 24248 24249 1
27297 24248 24295 1
27298 24248 24324 1
27299 24249 24250 am
27300 24249 24255 am
27301 24250 24251 1
27302 24250 24252 am
27303 24251 24296 1
27304 24251 24325 1
27305 24252 24253 am
27306 24252 24283 1
27307 24253 24254 am
27308 24253 24259 1
27309 24254 24255 am
27310 24254 24256 1
27311 24255 24260 am
27312 24256 24257 1
27313 24256 24262 am
27314 24257 24258 1
27315 24257 24297 1
27316 24257 24298 1
27317 24258 24259 1
27318 24258 24299 1
27319 24258 24300 1
27320 24259 24301 1
27321 24259 24302 1
27322 24260 24261 am
27323 24260 24303 1
27324 24261 24262 am
27325 24261 24282 1
27326 24262 24304 1
27327 24263 24264 1
27328 24263 24305 1
27329 24263 24306 1
27330 24264 24265 am
27331 24264 24269 am
27332 24265 24266 am
27333 24266 24267 am
27334 24266 24307 1
27335 24267 24268 am
27336 24267 24276 am
27337 24268 24269 am
27338 24268 24273 am
27339 24269 24270 am
27340 24270 24271 am
27341 24270 24308 1
27342 24271 24272 am
27343 24271 24280 1
27344 24272 24273 am
27345 24272 24309 1
27346 24273 24274 am
27347 24274 24275 am
27348 24274 24284 1
27349 24275 24276 am
27350 24275 24310 1
27351 24276 24311 1
27352 24277 24312 1
27353 24278 24313 1
27354 24278 24314 1
27355 24278 24315 1
27356 24279 24316 1
27357 24280 24281 1
27358 24280 24317 1
27359 24280 24326 1
27360 24281 24318 1
27361 24281 24319 1
27362 24281 24320 1
27363 24282 24321 1
27364 24283 24322 1
27365 24284 24323 1
27366 24327 24328 am
27367 24332 24327 am
27368 24327 24379 1
27369 24328 24329 am
27370 24328 24387 1
27371 24329 24330 am
27372 24329 24335 1
27373 24330 24331 am
27374 24330 24333 1
27375 24331 24332 am
27376 24331 24388 1
27377 24332 24380 1
27378 24333 24334 am
27379 24333 24339 am
27380 24334 24335 1
27381 24334 24336 am
27382 24335 24389 1
27383 24335 24390 1
27384 24336 24337 am
27385 24336 24349 am
27386 24337 24338 am
27387 24337 24346 am
27388 24338 24339 am
27389 24338 24343 1
27390 24339 24340 1
27391 24340 24341 1
27392 24340 24391 1
27393 24340 24392 1
27394 24341 24342 1
27395 24341 24393 1
27396 24341 24394 1
27397 24342 24343 1
27398 24342 24395 1
27399 24342 24396 1
27400 24343 24344 am
27401 24344 24345 am
27402 24344 24353 1
27403 24345 24346 am
27404 24345 24350 1
27405 24346 24347 am
27406 24347 24348 am
27407 24347 24367 am
27408 24348 24349 am
27409 24348 24365 1
27410 24349 24381 1
27411 24350 24351 1
27412 24350 24397 1
27413 24350 24426 1
27414 24351 24352 am
27415 24351 24357 am
27416 24352 24353 1
27417 24352 24354 am
27418 24353 24398 1
27419 24353 24427 1
27420 24354 24355 am
27421 24354 24385 1
27422 24355 24356 am
27423 24355 24361 1
27424 24356 24357 am
27425 24356 24358 1
27426 24357 24362 am
27427 24358 24359 1
27428 24358 24364 am
27429 24359 24360 1
27430 24359 24399 1
27431 24359 24400 1
27432 24360 24361 1
27433 24360 24401 1
27434 24360 24402 1
27435 24361 24403 1
27436 24361 24404 1
27437 24362 24363 am
27438 24362 24405 1
27439 24363 24364 am
27440 24363 24384 1
27441 24364 24406 1
27442 24365 24366 1
27443 24365 24407 1
27444 24365 24408 1
27445 24366 24367 am
27446 24366 24371 am
27447 24367 24368 am
27448 24368 24369 am
27449 24368 24409 1
27450 24369 24370 am
27451 24369 24378 am
27452 24370 24371 am
27453 24370 24375 am
27454 24371 24372 am
27455 24372 24373 am
27456 24372 24410 1
27457 24373 24374 am
27458 24373 24382 1
27459 24374 24375 am
27460 24374 24411 1
27461 24375 24376 am
27462 24376 24377 am
27463 24376 24386 1
27464 24377 24378 am
27465 24377 24412 1
27466 24378 24413 1
27467 24379 24414 1
27468 24380 24415 1
27469 24380 24416 1
27470 24380 24417 1
27471 24381 24418 1
27472 24382 24383 1
27473 24382 24419 1
27474 24382 24428 1
27475 24383 24420 1
27476 24383 24421 1
27477 24383 24422 1
27478 24384 24423 1
27479 24385 24424 1
27480 24386 24425 1
27481 24429 24430 am
27482 24434 24429 am
27483 24429 24481 1
27484 24430 24431 am
27485 24430 24489 1
27486 24431 24432 am
27487 24431 24437 1
27488 24432 24433 am
27489 24432 24435 1
27490 24433 24434 am
27491 24433 24490 1
27492 24434 24482 1
27493 24435 24436 am
27494 24435 24441 am
27495 24436 24437 1
27496 24436 24438 am
27497 24437 24491 1
27498 24437 24492 1
27499 24438 24439 am
27500 24438 24451 am
27501 24439 24440 am
27502 24439 24448 am
27503 24440 24441 am
27504 24440 24445 1
27505 24441 24442 1
27506 24442 24443 1
27507 24442 24493 1
27508 24442 24494 1
27509 24443 24444 1
27510 24443 24495 1
27511 24443 24496 1
27512 24444 24445 1
27513 24444 24497 1
27514 24444 24498 1
27515 24445 24446 am
27516 24446 24447 am
27517 24446 24455 1
27518 24447 24448 am
27519 24447 24452 1
27520 24448 24449 am
27521 24449 24450 am
27522 24449 24469 am
27523 24450 24451 am
27524 24450 24467 1
27525 24451 24483 1
27526 24452 24453 1
27527 24452 24499 1
27528 24452 24528 1
27529 24453 24454 am
27530 24453 24459 am
27531 24454 24455 1
27532 24454 24456 am
27533 24455 24500 1
27534 24455 24529 1
27535 24456 24457 am
27536 24456 24487 1
27537 24457 24458 am
27538 24457 24463 1
27539 24458 24459 am
27540 24458 24460 1
27541 24459 24464 am
27542 24460 24461 1
27543 24460 24466 am
27544 24461 24462 1
27545 24461 24501 1
27546 24461 24502 1
27547 24462 24463 1
27548 24462 24503 1
27549 24462 24504 1
27550 24463 24505 1
27551 24463 24506 1
27552 24464 24465 am
27553 24464 24507 1
27554 24465 24466 am
27555 24465 24486 1
27556 24466 24508 1
27557 24467 24468 1
27558 24467 24509 1
27559 24467 24510 1
27560 24468 24469 am
27561 24468 24473 am
27562 24469 24470 am
27563 24470 24471 am
27564 24470 24511 1
27565 24471 24472 am
27566 24471 24480 am
27567 24472 24473 am
27568 24472 24477 am
27569 24473 24474 am
27570 24474 24475 am
27571 24474 24512 1
27572 24475 24476 am
27573 24475 24484 1
27574 24476 24477 am
27575 24476 24513 1
27576 24477 24478 am
27577 24478 24479 am
27578 24478 24488 1
27579 24479 24480 am
27580 24479 24514 1
27581 24480 24515 1
27582 24481 24516 1
27583 24482 24517 1
27584 24482 24518 1
27585 24482 24519 1
27586 24483 24520 1
27587 24484 24485 1
27588 24484 24521 1
27589 24484 24530 1
27590 24485 24522 1
27591 24485 24523 1
27592 24485 24524 1
27593 24486 24525 1
27594 24487 24526 1
27595 24488 24527 1
27596 24531 24532 am
27597 24536 24531 am
27598 24531 24583 1
27599 24532 24533 am
27600 24532 24591 1
27601 24533 24534 am
27602 24533 24539 1
27603 24534 24535 am
27604 24534 24537 1
27605 24535 24536 am
27606 24535 24592 1
27607 24536 24584 1
27608 24537 24538 am
27609 24537 24543 am
27610 24538 24539 1
27611 24538 24540 am
27612 24539 24593 1
27613 24539 24594 1
27614 24540 24541 am
27615 24540 24553 am
27616 24541 24542 am
27617 24541 24550 am
27618 24542 24543 am
27619 24542 24547 1
27620 24543 24544 1
27621 24544 24545 1
27622 24544 24595 1
27623 24544 24596 1
27624 24545 24546 1
27625 24545 24597 1
27626 24545 24598 1
27627 24546 24547 1
27628 24546 24599 1
27629 24546 24600 1
27630 24547 24548 am
27631 24548 24549 am
27632 24548 24557 1
27633 24549 24550 am
27634 24549 24554 1
27635 24550 24551 am
27636 24551 24552 am
27637 24551 24571 am
27638 24552 24553 am
27639 24552 24569 1
27640 24553 24585 1
27641 24554 24555 1
27642 24554 24601 1
27643 24554 24630 1
27644 24555 24556 am
27645 24555 24561 am
27646 24556 24557 1
27647 24556 24558 am
27648 24557 24602 1
27649 24557 24631 1
27650 24558 24559 am
27651 24558 24589 1
27652 24559 24560 am
27653 24559 24565 1
27654 24560 24561 am
27655 24560 24562 1
27656 24561 24566 am
27657 24562 24563 1
27658 24562 24568 am
27659 24563 24564 1
27660 24563 24603 1
27661 24563 24604 1
27662 24564 24565 1
27663 24564 24605 1
27664 24564 24606 1
27665 24565 24607 1
27666 24565 24608 1
27667 24566 24567 am
27668 24566 24609 1
27669 24567 24568 am
27670 24567 24588 1
27671 24568 24610 1
27672 24569 24570 1
27673 24569 24611 1
27674 24569 24612 1
27675 24570 24571 am
27676 24570 24575 am
27677 24571 24572 am
27678 24572 24573 am
27679 24572 24613 1
27680 24573 24574 am
27681 24573 24582 am
27682 24574 24575 am
27683 24574 24579 am
27684 24575 24576 am
27685 24576 24577 am
27686 24576 24614 1
27687 24577 24578 am
27688 24577 24586 1
27689 24578 24579 am
27690 24578 24615 1
27691 24579 24580 am
27692 24580 24581 am
27693 24580 24590 1
27694 24581 24582 am
27695 24581 24616 1
27696 24582 24617 1
27697 24583 24618 1
27698 24584 24619 1
27699 24584 24620 1
27700 24584 24621 1
27701 24585 24622 1
27702 24586 24587 1
27703 24586 24623 1
27704 24586 24632 1
27705 24587 24624 1
27706 24587 24625 1
27707 24587 24626 1
27708 24588 24627 1
27709 24589 24628 1
27710 24590 24629 1
27711 24633 24634 am
27712 24638 24633 am
27713 24633 24685 1
27714 24634 24635 am
27715 24634 24693 1
27716 24635 24636 am
27717 24635 24641 1
27718 24636 24637 am
27719 24636 24639 1
27720 24637 24638 am
27721 24637 24694 1
27722 24638 24686 1
27723 24639 24640 am
27724 24639 24645 am
27725 24640 24641 1
27726 24640 24642 am
27727 24641 24695 1
27728 24641 24696 1
27729 24642 24643 am
27730 24642 24655 am
27731 24643 24644 am
27732 24643 24652 am
27733 24644 24645 am
27734 24644 24649 1
27735 24645 24646 1
27736 24646 24647 1
27737 24646 24697 1
27738 24646 24698 1
27739 24647 24648 1
27740 24647 24699 1
27741 24647 24700 1
27742 24648 24649 1
27743 24648 24701 1
27744 24648 24702 1
27745 24649 24650 am
27746 24650 24651 am
27747 24650 24659 1
27748 24651 24652 am
27749 24651 24656 1
27750 24652 24653 am
27751 24653 24654 am
27752 24653 24673 am
27753 24654 24655 am
27754 24654 24671 1
27755 24655 24687 1
27756 24656 24657 1
27757 24656 24703 1
27758 24656 24732 1
27759 24657 24658 am
27760 24657 24663 am
27761 24658 24659 1
27762 24658 24660 am
27763 24659 24704 1
27764 24659 24733 1
27765 24660 24661 am
27766 24660 24691 1
27767 24661 24662 am
27768 24661 24667 1
27769 24662 24663 am
27770 24662 24664 1
27771 24663 24668 am
27772 24664 24665 1
27773 24664 24670 am
27774 24665 24666 1
27775 24665 24705 1
27776 24665 24706 1
27777 24666 24667 1
27778 24666 24707 1
27779 24666 24708 1
27780 24667 24709 1
27781 24667 24710 1
27782 24668 24669 am
27783 24668 24711 1
27784 24669 24670 am
27785 24669 24690 1
27786 24670 24712 1
27787 24671 24672 1
27788 24671 24713 1
27789 24671 24714 1
27790 24672 24673 am
27791 24672 24677 am
27792 24673 24674 am
27793 24674 24675 am
27794 24674 24715 1
27795 24675 24676 am
27796 24675 24684 am
27797 24676 24677 am
27798 24676 24681 am
27799 24677 24678 am
27800 24678 24679 am
27801 24678 24716 1
27802 24679 24680 am
27803 24679 24688 1
27804 24680 24681 am
27805 24680 24717 1
27806 24681 24682 am
27807 24682 24683 am
27808 24682 24692 1
27809 24683 24684 am
27810 24683 24718 1
27811 24684 24719 1
27812 24685 24720 1
27813 24686 24721 1
27814 24686 24722 1
27815 24686 24723 1
27816 24687 24724 1
27817 24688 24689 1
27818 24688 24725 1
27819 24688 24734 1
27820 24689 24726 1
27821 24689 24727 1
27822 24689 24728 1
27823 24690 24729 1
27824 24691 24730 1
27825 24692 24731 1
27826 24735 24736 am
27827 24740 24735 am
27828 24735 24787 1
27829 24736 24737 am
27830 24736 24795 1
27831 24737 24738 am
27832 24737 24743 1
27833 24738 24739 am
27834 24738 24741 1
27835 24739 24740 am
27836 24739 24796 1
27837 24740 24788 1
27838 24741 24742 am
27839 24741 24747 am
27840 24742 24743 1
27841 24742 24744 am
27842 24743 24797 1
27843 24743 24798 1
27844 24744 24745 am
27845 24744 24757 am
27846 24745 24746 am
27847 24745 24754 am
27848 24746 24747 am
27849 24746 24751 1
27850 24747 24748 1
27851 24748 24749 1
27852 24748 24799 1
27853 24748 24800 1
27854 24749 24750 1
27855 24749 24801 1
27856 24749 24802 1
27857 24750 24751 1
27858 24750 24803 1
27859 24750 24804 1
27860 24751 24752 am
27861 24752 24753 am
27862 24752 24761 1
27863 24753 24754 am
27864 24753 24758 1
27865 24754 24755 am
27866 24755 24756 am
27867 24755 24775 am
27868 24756 24757 am
27869 24756 24773 1
27870 24757 24789 1
27871 24758 24759 1
27872 24758 24805 1
27873 24758 24834 1
27874 24759 24760 am
27875 24759 24765 am
27876 24760 24761 1
27877 24760 24762 am
27878 24761 24806 1
27879 24761 24835 1
27880 24762 24763 am
27881 24762 24793 1
27882 24763 24764 am
27883 24763 24769 1
27884 24764 24765 am
27885 24764 24766 1
27886 24765 24770 am
27887 24766 24767 1
27888 24766 24772 am
27889 24767 24768 1
27890 24767 24807 1
27891 24767 24808 1
27892 24768 24769 1
27893 24768 24809 1
27894 24768 24810 1
27895 24769 24811 1
27896 24769 24812 1
27897 24770 24771 am
27898 24770 24813 1
27899 24771 24772 am
27900 24771 24792 1
27901 24772 24814 1
27902 24773 24774 1
27903 24773 24815 1
27904 24773 24816 1
27905 24774 24775 am
27906 24774 24779 am
27907 24775 24776 am
27908 24776 24777 am
27909 24776 24817 1
27910 24777 24778 am
27911 24777 24786 am
27912 24778 24779 am
27913 24778 24783 am
27914 24779 24780 am
27915 24780 24781 am
27916 24780 24818 1
27917 24781 24782 am
27918 24781 24790 1
27919 24782 24783 am
27920 24782 24819 1
27921 24783 24784 am
27922 24784 24785 am
27923 24784 24794 1
27924 24785 24786 am
27925 24785 24820 1
27926 24786 24821 1
27927 24787 24822 1
27928 24788 24823 1
27929 24788 24824 1
27930 24788 24825 1
27931 24789 24826 1
27932 24790 24791 1
27933 24790 24827 1
27934 24790 24836 1
27935 24791 24828 1
27936 24791 24829 1
27937 24791 24830 1
27938 24792 24831 1
27939 24793 24832 1
27940 24794 24833 1
27941 24837 24838 am
27942 24842 24837 am
27943 24837 24889 1
27944 24838 24839 am
27945 24838 24897 1
27946 24839 24840 am
27947 24839 24845 1
27948 24840 24841 am
27949 24840 24843 1
27950 24841 24842 am
27951 24841 24898 1
27952 24842 24890 1
27953 24843 24844 am
27954 24843 24849 am
27955 24844 24845 1
27956 24844 24846 am
27957 24845 24899 1
27958 24845 24900 1
27959 24846 24847 am
27960 24846 24859 am
27961 24847 24848 am
27962 24847 24856 am
27963 24848 24849 am
27964 24848 24853 1
27965 24849 24850 1
27966 24850 24851 1
27967 24850 24901 1
27968 24850 24902 1
27969 24851 24852 1
27970 24851 24903 1
27971 24851 24904 1
27972 24852 24853 1
27973 24852 24905 1
27974 24852 24906 1
27975 24853 24854 am
27976 24854 24855 am
27977 24854 24863 1
27978 24855 24856 am
27979 24855 24860 1
27980 24856 24857 am
27981 24857 24858 am
27982 24857 24877 am
27983 24858 24859 am
27984 24858 24875 1
27985 24859 24891 1
27986 24860 24861 1
27987 24860 24907 1
27988 24860 24936 1
27989 24861 24862 am
27990 24861 24867 am
27991 24862 24863 1
27992 24862 24864 am
27993 24863 24908 1
27994 24863 24937 1
27995 24864 24865 am
27996 24864 24895 1
27997 24865 24866 am
27998 24865 24871 1
27999 24866 24867 am
28000 24866 24868 1
28001 24867 24872 am
28002 24868 24869 1
28003 24868 24874 am
28004 24869 24870 1
28005 24869 24909 1
28006 24869 24910 1
28007 24870 24871 1
28008 24870 24911 1
28009 24870 24912 1
28010 24871 24913 1
28011 24871 24914 1
28012 24872 24873 am
28013 24872 24915 1
28014 24873 24874 am
28015 24873 24894 1
28016 24874 24916 1
28017 24875 24876 1
28018 24875 24917 1
28019 24875 24918 1
28020 24876 24877 am
28021 24876 24881 am
28022 24877 24878 am
28023 24878 24879 am
28024 24878 24919 1
28025 24879 24880 am
28026 24879 24888 am
28027 24880 24881 am
28028 24880 24885 am
28029 24881 24882 am
28030 24882 24883 am
28031 24882 24920 1
28032 24883 24884 am
28033 24883 24892 1
28034 24884 24885 am
28035 24884 24921 1
28036 24885 24886 am
28037 24886 24887 am
28038 24886 24896 1
28039 24887 24888 am
28040 24887 24922 1
28041 24888 24923 1
28042 24889 24924 1
28043 24890 24925 1
28044 24890 24926 1
28045 24890 24927 1
28046 24891 24928 1
28047 24892 24893 1
28048 24892 24929 1
28049 24892 24938 1
28050 24893 24930 1
28051 24893 24931 1
28052 24893 24932 1
28053 24894 24933 1
28054 24895 24934 1
28055 24896 24935 1
28056 24939 24940 am
28057 24944 24939 am
28058 24939 24991 1
28059 24940 24941 am
28060 24940 24999 1
28061 24941 24942 am
28062 24941 24947 1
28063 24942 24943 am
28064 24942 24945 1
28065 24943 24944 am
28066 24943 25000 1
28067 24944 24992 1
28068 24945 24946 am
28069 24945 24951 am
28070 24946 24947 1
28071 24946 24948 am
28072 24947 25001 1
28073 24947 25002 1
28074 24948 24949 am
28075 24948 24961 am
28076 24949 24950 am
28077 24949 24958 am
28078 24950 24951 am
28079 24950 24955 1
28080 24951 24952 1
28081 24952 24953 1
28082 24952 25003 1
28083 24952 25004 1
28084 24953 24954 1
28085 24953 25005 1
28086 24953 25006 1
28087 24954 24955 1
28088 24954 25007 1
28089 24954 25008 1
28090 24955 24956 am
28091 24956 24957 am
28092 24956 24965 1
28093 24957 24958 am
28094 24957 24962 1
28095 24958 24959 am
28096 24959 24960 am
28097 24959 24979 am
28098 24960 24961 am
28099 24960 24977 1
28100 24961 24993 1
28101 24962 24963 1
28102 24962 25009 1
28103 24962 25038 1
28104 24963 24964 am
28105 24963 24969 am
28106 24964 24965 1
28107 24964 24966 am
28108 24965 25010 1
28109 24965 25039 1
28110 24966 24967 am
28111 24966 24997 1
28112 24967 24968 am
28113 24967 24973 1
28114 24968 24969 am
28115 24968 24970 1
28116 24969 24974 am
28117 24970 24971 1
28118 24970 24976 am
28119 24971 24972 1
28120 24971 25011 1
28121 24971 25012 1
28122 24972 24973 1
28123 24972 25013 1
28124 24972 25014 1
28125 24973 25015 1
28126 24973 25016 1
28127 24974 24975 am
28128 24974 25017 1
28129 24975 24976 am
28130 24975 24996 1
28131 24976 25018 1
28132 24977 24978 1
28133 24977 25019 1
28134 24977 25020 1
28135 24978 24979 am
28136 24978 24983 am
28137 24979 24980 am
28138 24980 24981 am
28139 24980 25021 1
28140 24981 24982 am
28141 24981 24990 am
28142 24982 24983 am
28143 24982 24987 am
28144 24983 24984 am
28145 24984 24985 am
28146 24984 25022 1
28147 24985 24986 am
28148 24985 24994 1
28149 24986 24987 am
28150 24986 25023 1
28151 24987 24988 am
28152 24988 24989 am
28153 24988 24998 1
28154 24989 24990 am
28155 24989 25024 1
28156 24990 25025 1
28157 24991 25026 1
28158 24992 25027 1
28159 24992 25028 1
28160 24992 25029 1
28161 24993 25030 1
28162 24994 24995 1
28163 24994 25031 1
28164 24994 25040 1
28165 24995 25032 1
28166 24995 25033 1
28167 24995 25034 1
28168 24996 25035 1
28169 24997 25036 1
28170 24998 25037 1
28171 25041 25042 am
28172 25046 25041 am
28173 25041 25093 1
28174 25042 25043 am
28175 25042 25101 1
28176 25043 25044 am
28177 25043 25049 1
28178 25044 25045 am
28179 25044 25047 1
28180 25045 25046 am
28181 25045 25102 1
28182 25046 25094 1
28183 25047 25048 am
28184 25047 25053 am
28185 25048 25049 1
28186 25048 25050 am
28187 25049 25103 1
28188 25049 25104 1
28189 25050 25051 am
28190 25050 25063 am
28191 25051 25052 am
28192 25051 25060 am
28193 25052 25053 am
28194 25052 25057 1
28195 25053 25054 1
28196 25054 25055 1
28197 25054 25105 1
28198 25054 25106 1
28199 25055 25056 1
28200 25055 25107 1
28201 25055 25108 1
28202 25056 25057 1
28203 25056 25109 1
28204 25056 25110 1
28205 25057 25058 am
28206 25058 25059 am
28207 25058 25067 1
28208 25059 25060 am
28209 25059 25064 1
28210 25060 25061 am
28211 25061 25062 am
28212 25061 25081 am
28213 25062 25063 am
28214 25062 25079 1
28215 25063 25095 1
28216 25064 25065 1
28217 25064 25111 1
28218 25064 25140 1
28219 25065 25066 am
28220 25065 25071 am
28221 25066 25067 1
28222 25066 25068 am
28223 25067 25112 1
28224 25067 25141 1
28225 25068 25069 am
28226 25068 25099 1
28227 25069 25070 am
28228 25069 25075 1
28229 25070 25071 am
28230 25070 25072 1
28231 25071 25076 am
28232 25072 25073 1
28233 25072 25078 am
28234 25073 25074 1
28235 25073 25113 1
28236 25073 25114 1
28237 25074 25075 1
28238 25074 25115 1
28239 25074 25116 1
28240 25075 25117 1
28241 25075 25118 1
28242 25076 25077 am
28243 25076 25119 1
28244 25077 25078 am
28245 25077 25098 1
28246 25078 25120 1
28247 25079 25080 1
28248 25079 25121 1
28249 25079 25122 1
28250 25080 25081 am
28251 25080 25085 am
28252 25081 25082 am
28253 25082 25083 am
28254 25082 25123 1
28255 25083 25084 am
28256 25083 25092 am
28257 25084 25085 am
28258 25084 25089 am
28259 25085 25086 am
28260 25086 25087 am
28261 25086 25124 1
28262 25087 25088 am
28263 25087 25096 1
28264 25088 25089 am
28265 25088 25125 1
28266 25089 25090 am
28267 25090 25091 am
28268 25090 25100 1
28269 25091 25092 am
28270 25091 25126 1
28271 25092 25127 1
28272 25093 25128 1
28273 25094 25129 1
28274 25094 25130 1
28275 25094 25131 1
28276 25095 25132 1
28277 25096 25097 1
28278 25096 25133 1
28279 25096 25142 1
28280 25097 25134 1
28281 25097 25135 1
28282 25097 25136 1
28283 25098 25137 1
28284 25099 25138 1
28285 25100 25139 1
28286 25143 25144 am
28287 25148 25143 am
28288 25143 25195 1
28289 25144 25145 am
28290 25144 25203 1
28291 25145 25146 am
28292 25145 25151 1
28293 25146 25147 am
28294 25146 25149 1
28295 25147 25148 am
28296 25147 25204 1
28297 25148 25196 1
28298 25149 25150 am
28299 25149 25155 am
28300 25150 25151 1
28301 25150 25152 am
28302 25151 25205 1
28303 25151 25206 1
28304 25152 25153 am
28305 25152 25165 am
28306 25153 25154 am
28307 25153 25162 am
28308 25154 25155 am
28309 25154 25159 1
28310 25155 25156 1
28311 25156 25157 1
28312 25156 25207 1
28313 25156 25208 1
28314 25157 25158 1
28315 25157 25209 1
28316 25157 25210 1
28317 25158 25159 1
28318 25158 25211 1
28319 25158 25212 1
28320 25159 25160 am
28321 25160 25161 am
28322 25160 25169 1
28323 25161 25162 am
28324 25161 25166 1
28325 25162 25163 am
28326 25163 25164 am
28327 25163 25183 am
28328 25164 25165 am
28329 25164 25181 1
28330 25165 25197 1
28331 25166 25167 1
28332 25166 25213 1
28333 25166 25242 1
28334 25167 25168 am
28335 25167 25173 am
28336 25168 25169 1
28337 25168 25170 am
28338 25169 25214 1
28339 25169 25243 1
28340 25170 25171 am
28341 25170 25201 1
28342 25171 25172 am
28343 25171 25177 1
28344 25172 25173 am
28345 25172 25174 1
28346 25173 25178 am
28347 25174 25175 1
28348 25174 25180 am
28349 25175 25176 1
28350 25175 25215 1
28351 25175 25216 1
28352 25176 25177 1
28353 25176 25217 1
28354 25176 25218 1
28355 25177 25219 1
28356 25177 25220 1
28357 25178 25179 am
28358 25178 25221 1
28359 25179 25180 am
28360 25179 25200 1
28361 25180 25222 1
28362 25181 25182 1
28363 25181 25223 1
28364 25181 25224 1
28365 25182 25183 am
28366 25182 25187 am
28367 25183 25184 am
28368 25184 25185 am
28369 25184 25225 1
28370 25185 25186 am
28371 25185 25194 am
28372 25186 25187 am
28373 25186 25191 am
28374 25187 25188 am
28375 25188 25189 am
28376 25188 25226 1
28377 25189 25190 am
28378 25189 25198 1
28379 25190 25191 am
28380 25190 25227 1
28381 25191 25192 am
28382 25192 25193 am
28383 25192 25202 1
28384 25193 25194 am
28385 25193 25228 1
28386 25194 25229 1
28387 25195 25230 1
28388 25196 25231 1
28389 25196 25232 1
28390 25196 25233 1
28391 25197 25234 1
28392 25198 25199 1
28393 25198 25235 1
28394 25198 25244 1
28395 25199 25236 1
28396 25199 25237 1
28397 25199 25238 1
28398 25200 25239 1
28399 25201 25240 1
28400 25202 25241 1
28401 25245 25246 am
28402 25250 25245 am
28403 25245 25297 1
28404 25246 25247 am
28405 25246 25305 1
28406 25247 25248 am
28407 25247 25253 1
28408 25248 25249 am
28409 25248 25251 1
28410 25249 25250 am
28411 25249 25306 1
28412 25250 25298 1
28413 25251 25252 am
28414 25251 25257 am
28415 25252 25253 1
28416 25252 25254 am
28417 25253 25307 1
28418 25253 25308 1
28419 25254 25255 am
28420 25254 25267 am
28421 25255 25256 am
28422 25255 25264 am
28423 25256 25257 am
28424 25256 25261 1
28425 25257 25258 1
28426 25258 25259 1
28427 25258 25309 1
28428 25258 25310 1
28429 25259 25260 1
28430 25259 25311 1
28431 25259 25312 1
28432 25260 25261 1
28433 25260 25313 1
28434 25260 25314 1
28435 25261 25262 am
28436 25262 25263 am
28437 25262 25271 1
28438 25263 25264 am
28439 25263 25268 1
28440 25264 25265 am
28441 25265 25266 am
28442 25265 25285 am
28443 25266 25267 am
28444 25266 25283 1
28445 25267 25299 1
28446 25268 25269 1
28447 25268 25315 1
28448 25268 25344 1
28449 25269 25270 am
28450 25269 25275 am
28451 25270 25271 1
28452 25270 25272 am
28453 25271 25316 1
28454 25271 25345 1
28455 25272 25273 am
28456 25272 25303 1
28457 25273 25274 am
28458 25273 25279 1
28459 25274 25275 am
28460 25274 25276 1
28461 25275 25280 am
28462 25276 25277 1
28463 25276 25282 am
28464 25277 25278 1
28465 25277 25317 1
28466 25277 25318 1
28467 25278 25279 1
28468 25278 25319 1
28469 25278 25320 1
28470 25279 25321 1
28471 25279 25322 1
28472 25280 25281 am
28473 25280 25323 1
28474 25281 25282 am
28475 25281 25302 1
28476 25282 25324 1
28477 25283 25284 1
28478 25283 25325 1
28479 25283 25326 1
28480 25284 25285 am
28481 25284 25289 am
28482 25285 25286 am
28483 25286 25287 am
28484 25286 25327 1
28485 25287 25288 am
28486 25287 25296 am
28487 25288 25289 am
28488 25288 25293 am
28489 25289 25290 am
28490 25290 25291 am
28491 25290 25328 1
28492 25291 25292 am
28493 25291 25300 1
28494 25292 25293 am
28495 25292 25329 1
28496 25293 25294 am
28497 25294 25295 am
28498 25294 25304 1
28499 25295 25296 am
28500 25295 25330 1
28501 25296 25331 1
28502 25297 25332 1
28503 25298 25333 1
28504 25298 25334 1
28505 25298 25335 1
28506 25299 25336 1
28507 25300 25301 1
28508 25300 25337 1
28509 25300 25346 1
28510 25301 25338 1
28511 25301 25339 1
28512 25301 25340 1
28513 25302 25341 1
28514 25303 25342 1
28515 25304 25343 1
28516 25347 25348 am
28517 25352 25347 am
28518 25347 25399 1
28519 25348 25349 am
28520 25348 25407 1
28521 25349 25350 am
28522 25349 25355 1
28523 25350 25351 am
28524 25350 25353 1
28525 25351 25352 am
28526 25351 25408 1
28527 25352 25400 1
28528 25353 25354 am
28529 25353 25359 am
28530 25354 25355 1
28531 25354 25356 am
28532 25355 25409 1
28533 25355 25410 1
28534 25356 25357 am
28535 25356 25369 am
28536 25357 25358 am
28537 25357 25366 am
28538 25358 25359 am
28539 25358 25363 1
28540 25359 25360 1
28541 25360 25361 1
28542 25360 25411 1
28543 25360 25412 1
28544 25361 25362 1
28545 25361 25413 1
28546 25361 25414 1
28547 25362 25363 1
28548 25362 25415 1
28549 25362 25416 1
28550 25363 25364 am
28551 25364 25365 am
28552 25364 25373 1
28553 25365 25366 am
28554 25365 25370 1
28555 25366 25367 am
28556 25367 25368 am
28557 25367 25387 am
28558 25368 25369 am
28559 25368 25385 1
28560 25369 25401 1
28561 25370 25371 1
28562 25370 25417 1
28563 25370 25446 1
28564 25371 25372 am
28565 25371 25377 am
28566 25372 25373 1
28567 25372 25374 am
28568 25373 25418 1
28569 25373 25447 1
28570 25374 25375 am
28571 25374 25405 1
28572 25375 25376 am
28573 25375 25381 1
28574 25376 25377 am
28575 25376 25378 1
28576 25377 25382 am
28577 25378 25379 1
28578 25378 25384 am
28579 25379 25380 1
28580 25379 25419 1
28581 25379 25420 1
28582 25380 25381 1
28583 25380 25421 1
28584 25380 25422 1
28585 25381 25423 1
28586 25381 25424 1
28587 25382 25383 am
28588 25382 25425 1
28589 25383 25384 am
28590 25383 25404 1
28591 25384 25426 1
28592 25385 25386 1
28593 25385 25427 1
28594 25385 25428 1
28595 25386 25387 am
28596 25386 25391 am
28597 25387 25388 am
28598 25388 25389 am
28599 25388 25429 1
28600 25389 25390 am
28601 25389 25398 am
28602 25390 25391 am
28603 25390 25395 am
28604 25391 25392 am
28605 25392 25393 am
28606 25392 25430 1
28607 25393 25394 am
28608 25393 25402 1
28609 25394 25395 am
28610 25394 25431 1
28611 25395 25396 am
28612 25396 25397 am
28613 25396 25406 1
28614 25397 25398 am
28615 25397 25432 1
28616 25398 25433 1
28617 25399 25434 1
28618 25400 25435 1
28619 25400 25436 1
28620 25400 25437 1
28621 25401 25438 1
28622 25402 25403 1
28623 25402 25439 1
28624 25402 25448 1
28625 25403 25440 1
28626 25403 25441 1
28627 25403 25442 1
28628 25404 25443 1
28629 25405 25444 1
28630 25406 25445 1
28631 25449 25450 am
28632 25454 25449 am
28633 25449 25501 1
28634 25450 25451 am
28635 25450 25509 1
28636 25451 25452 am
28637 25451 25457 1
28638 25452 25453 am
28639 25452 25455 1
28640 25453 25454 am
28641 25453 25510 1
28642 25454 25502 1
28643 25455 25456 am
28644 25455 25461 am
28645 25456 25457 1
28646 25456 25458 am
28647 25457 25511 1
28648 25457 25512 1
28649 25458 25459 am
28650 25458 25471 am
28651 25459 25460 am
28652 25459 25468 am
28653 25460 25461 am
28654 25460 25465 1
28655 25461 25462 1
28656 25462 25463 1
28657 25462 25513 1
28658 25462 25514 1
28659 25463 25464 1
28660 25463 25515 1
28661 25463 25516 1
28662 25464 25465 1
28663 25464 25517 1
28664 25464 25518 1
28665 25465 25466 am
28666 25466 25467 am
28667 25466 25475 1
28668 25467 25468 am
28669 25467 25472 1
28670 25468 25469 am
28671 25469 25470 am
28672 25469 25489 am
28673 25470 25471 am
28674 25470 25487 1
28675 25471 25503 1
28676 25472 25473 1
28677 25472 25519 1
28678 25472 25548 1
28679 25473 25474 am
28680 25473 25479 am
28681 25474 25475 1
28682 25474 25476 am
28683 25475 25520 1
28684 25475 25549 1
28685 25476 25477 am
28686 25476 25507 1
28687 25477 25478 am
28688 25477 25483 1
28689 25478 25479 am
28690 25478 25480 1
28691 25479 25484 am
28692 25480 25481 1
28693 25480 25486 am
28694 25481 25482 1
28695 25481 25521 1
28696 25481 25522 1
28697 25482 25483 1
28698 25482 25523 1
28699 25482 25524 1
28700 25483 25525 1
28701 25483 25526 1
28702 25484 25485 am
28703 25484 25527 1
28704 25485 25486 am
28705 25485 25506 1
28706 25486 25528 1
28707 25487 25488 1
28708 25487 25529 1
28709 25487 25530 1
28710 25488 25489 am
28711 25488 25493 am
28712 25489 25490 am
28713 25490 25491 am
28714 25490 25531 1
28715 25491 25492 am
28716 25491 25500 am
28717 25492 25493 am
28718 25492 25497 am
28719 25493 25494 am
28720 25494 25495 am
28721 25494 25532 1
28722 25495 25496 am
28723 25495 25504 1
28724 25496 25497 am
28725 25496 25533 1
28726 25497 25498 am
28727 25498 25499 am
28728 25498 25508 1
28729 25499 25500 am
28730 25499 25534 1
28731 25500 25535 1
28732 25501 25536 1
28733 25502 25537 1
28734 25502 25538 1
28735 25502 25539 1
28736 25503 25540 1
28737 25504 25505 1
28738 25504 25541 1
28739 25504 25550 1
28740 25505 25542 1
28741 25505 25543 1
28742 25505 25544 1
28743 25506 25545 1
28744 25507 25546 1
28745 25508 25547 1
28746 25551 25552 am
28747 25556 25551 am
28748 25551 25603 1
28749 25552 25553 am
28750 25552 25611 1
28751 25553 25554 am
28752 25553 25559 1
28753 25554 25555 am
28754 25554 25557 1
28755 25555 25556 am
28756 25555 25612 1
28757 25556 25604 1
28758 25557 25558 am
28759 25557 25563 am
28760 25558 25559 1
28761 25558 25560 am
28762 25559 25613 1
28763 25559 25614 1
28764 25560 25561 am
28765 25560 25573 am
28766 25561 25562 am
28767 25561 25570 am
28768 25562 25563 am
28769 25562 25567 1
28770 25563 25564 1
28771 25564 25565 1
28772 25564 25615 1
28773 25564 25616 1
28774 25565 25566 1
28775 25565 25617 1
28776 25565 25618 1
28777 25566 25567 1
28778 25566 25619 1
28779 25566 25620 1
28780 25567 25568 am
28781 25568 25569 am
28782 25568 25577 1
28783 25569 25570 am
28784 25569 25574 1
28785 25570 25571 am
28786 25571 25572 am
28787 25571 25591 am
28788 25572 25573 am
28789 25572 25589 1
28790 25573 25605 1
28791 25574 25575 1
28792 25574 25621 1
28793 25574 25650 1
28794 25575 25576 am
28795 25575 25581 am
28796 25576 25577 1
28797 25576 25578 am
28798 25577 25622 1
28799 25577 25651 1
28800 25578 25579 am
28801 25578 25609 1
28802 25579 25580 am
28803 25579 25585 1
28804 25580 25581 am
28805 25580 25582 1
28806 25581 25586 am
28807 25582 25583 1
28808 25582 25588 am
28809 25583 25584 1
28810 25583 25623 1
28811 25583 25624 1
28812 25584 25585 1
28813 25584 25625 1
28814 25584 25626 1
28815 25585 25627 1
28816 25585 25628 1
28817 25586 25587 am
28818 25586 25629 1
28819 25587 25588 am
28820 25587 25608 1
28821 25588 25630 1
28822 25589 25590 1
28823 25589 25631 1
28824 25589 25632 1
28825 25590 25591 am
28826 25590 25595 am
28827 25591 25592 am
28828 25592 25593 am
28829 25592 25633 1
28830 25593 25594 am
28831 25593 25602 am
28832 25594 25595 am
28833 25594 25599 am
28834 25595 25596 am
28835 25596 25597 am
28836 25596 25634 1
28837 25597 25598 am
28838 25597 25606 1
28839 25598 25599 am
28840 25598 25635 1
28841 25599 25600 am
28842 25600 25601 am
28843 25600 25610 1
28844 25601 25602 am
28845 25601 25636 1
28846 25602 25637 1
28847 25603 25638 1
28848 25604 25639 1
28849 25604 25640 1
28850 25604 25641 1
28851 25605 25642 1
28852 25606 25607 1
28853 25606 25643 1
28854 25606 25652 1
28855 25607 25644 1
28856 25607 25645 1
28857 25607 25646 1
28858 25608 25647 1
28859 25609 25648 1
28860 25610 25649 1
28861 25653 25654 am
28862 25658 25653 am
28863 25653 25705 1
28864 25654 25655 am
28865 25654 25713 1
28866 25655 25656 am
28867 25655 25661 1
28868 25656 25657 am
28869 25656 25659 1
28870 25657 25658 am
28871 25657 25714 1
28872 25658 25706 1
28873 25659 25660 am
28874 25659 25665 am
28875 25660 25661 1
28876 25660 25662 am
28877 25661 25715 1
28878 25661 25716 1
28879 25662 25663 am
28880 25662 25675 am
28881 25663 25664 am
28882 25663 25672 am
28883 25664 25665 am
28884 25664 25669 1
28885 25665 25666 1
28886 25666 25667 1
28887 25666 25717 1
28888 25666 25718 1
28889 25667 25668 1
28890 25667 25719 1
28891 25667 25720 1
28892 25668 25669 1
28893 25668 25721 1
28894 25668 25722 1
28895 25669 25670 am
28896 25670 25671 am
28897 25670 25679 1
28898 25671 25672 am
28899 25671 25676 1
28900 25672 25673 am
28901 25673 25674 am
28902 25673 25693 am
28903 25674 25675 am
28904 25674 25691 1
28905 25675 25707 1
28906 25676 25677 1
28907 25676 25723 1
28908 25676 25752 1
28909 25677 25678 am
28910 25677 25683 am
28911 25678 25679 1
28912 25678 25680 am
28913 25679 25724 1
28914 25679 25753 1
28915 25680 25681 am
28916 25680 25711 1
28917 25681 25682 am
28918 25681 25687 1
28919 25682 25683 am
28920 25682 25684 1
28921 25683 25688 am
28922 25684 25685 1
28923 25684 25690 am
28924 25685 25686 1
28925 25685 25725 1
28926 25685 25726 1
28927 25686 25687 1
28928 25686 25727 1
28929 25686 25728 1
28930 25687 25729 1
28931 25687 25730 1
28932 25688 25689 am
28933 25688 25731 1
28934 25689 25690 am
28935 25689 25710 1
28936 25690 25732 1
28937 25691 25692 1
28938 25691 25733 1
28939 25691 25734 1
28940 25692 25693 am
28941 25692 25697 am
28942 25693 25694 am
28943 25694 25695 am
28944 25694 25735 1
28945 25695 25696 am
28946 25695 25704 am
28947 25696 25697 am
28948 25696 25701 am
28949 25697 25698 am
28950 25698 25699 am
28951 25698 25736 1
28952 25699 25700 am
28953 25699 25708 1
28954 25700 25701 am
28955 25700 25737 1
28956 25701 25702 am
28957 25702 25703 am
28958 25702 25712 1
28959 25703 25704 am
28960 25703 25738 1
28961 25704 25739 1
28962 25705 25740 1
28963 25706 25741 1
28964 25706 25742 1
28965 25706 25743 1
28966 25707 25744 1
28967 25708 25709 1
28968 25708 25745 1
28969 25708 25754 1
28970 25709 25746 1
28971 25709 25747 1
28972 25709 25748 1
28973 25710 25749 1
28974 25711 25750 1
28975 25712 25751 1
28976 25755 25756 am
28977 25760 25755 am
28978 25755 25807 1
28979 25756 25757 am
28980 25756 25815 1
28981 25757 25758 am
28982 25757 25763 1
28983 25758 25759 am
28984 25758 25761 1
28985 25759 25760 am
28986 25759 25816 1
28987 25760 25808 1
28988 25761 25762 am
28989 25761 25767 am
28990 25762 25763 1
28991 25762 25764 am
28992 25763 25817 1
28993 25763 25818 1
28994 25764 25765 am
28995 25764 25777 am
28996 25765 25766 am
28997 25765 25774 am
28998 25766 25767 am
28999 25766 25771 1
29000 25767 25768 1
29001 25768 25769 1
29002 25768 25819 1
29003 25768 25820 1
29004 25769 25770 1
29005 25769 25821 1
29006 25769 25822 1
29007 25770 25771 1
29008 25770 25823 1
29009 25770 25824 1
29010 25771 25772 am
29011 25772 25773 am
29012 25772 25781 1
29013 25773 25774 am
29014 25773 25778 1
29015 25774 25775 am
29016 25775 25776 am
29017 25775 25795 am
29018 25776 25777 am
29019 25776 25793 1
29020 25777 25809 1
29021 25778 25779 1
29022 25778 25825 1
29023 25778 25854 1
29024 25779 25780 am
29025 25779 25785 am
29026 25780 25781 1
29027 25780 25782 am
29028 25781 25826 1
29029 25781 25855 1
29030 25782 25783 am
29031 25782 25813 1
29032 25783 25784 am
29033 25783 25789 1
29034 25784 25785 am
29035 25784 25786 1
29036 25785 25790 am
29037 25786 25787 1
29038 25786 25792 am
29039 25787 25788 1
29040 25787 25827 1
29041 25787 25828 1
29042 25788 25789 1
29043 25788 25829 1
29044 25788 25830 1
29045 25789 25831 1
29046 25789 25832 1
29047 25790 25791 am
29048 25790 25833 1
29049 25791 25792 am
29050 25791 25812 1
29051 25792 25834 1
29052 25793 25794 1
29053 25793 25835 1
29054 25793 25836 1
29055 25794 25795 am
29056 25794 25799 am
29057 25795 25796 am
29058 25796 25797 am
29059 25796 25837 1
29060 25797 25798 am
29061 25797 25806 am
29062 25798 25799 am
29063 25798 25803 am
29064 25799 25800 am
29065 25800 25801 am
29066 25800 25838 1
29067 25801 25802 am
29068 25801 25810 1
29069 25802 25803 am
29070 25802 25839 1
29071 25803 25804 am
29072 25804 25805 am
29073 25804 25814 1
29074 25805 25806 am
29075 25805 25840 1
29076 25806 25841 1
29077 25807 25842 1
29078 25808 25843 1
29079 25808 25844 1
29080 25808 25845 1
29081 25809 25846 1
29082 25810 25811 1
29083 25810 25847 1
29084 25810 25856 1
29085 25811 25848 1
29086 25811 25849 1
29087 25811 25850 1
29088 25812 25851 1
29089 25813 25852 1
29090 25814 25853 1
29091 25857 25858 am
29092 25862 25857 am
29093 25857 25909 1
29094 25858 25859 am
29095 25858 25917 1
29096 25859 25860 am
29097 25859 25865 1
29098 25860 25861 am
29099 25860 25863 1
29100 25861 25862 am
29101 25861 25918 1
29102 25862 25910 1
29103 25863 25864 am
29104 25863 25869 am
29105 25864 25865 1
29106 25864 25866 am
29107 25865 25919 1
29108 25865 25920 1
29109 25866 25867 am
29110 25866 25879 am
29111 25867 25868 am
29112 25867 25876 am
29113 25868 25869 am
29114 25868 25873 1
29115 25869 25870 1
29116 25870 25871 1
29117 25870 25921 1
29118 25870 25922 1
29119 25871 25872 1
29120 25871 25923 1
29121 25871 25924 1
29122 25872 25873 1
29123 25872 25925 1
29124 25872 25926 1
29125 25873 25874 am
29126 25874 25875 am
29127 25874 25883 1
29128 25875 25876 am
29129 25875 25880 1
29130 25876 25877 am
29131 25877 25878 am
29132 25877 25897 am
29133 25878 25879 am
29134 25878 25895 1
29135 25879 25911 1
29136 25880 25881 1
29137 25880 25927 1
29138 25880 25956 1
29139 25881 25882 am
29140 25881 25887 am
29141 25882 25883 1
29142 25882 25884 am
29143 25883 25928 1
29144 25883 25957 1
29145 25884 25885 am
29146 25884 25915 1
29147 25885 25886 am
29148 25885 25891 1
29149 25886 25887 am
29150 25886 25888 1
29151 25887 25892 am
29152 25888 25889 1
29153 25888 25894 am
29154 25889 25890 1
29155 25889 25929 1
29156 25889 25930 1
29157 25890 25891 1
29158 25890 25931 1
29159 25890 25932 1
29160 25891 25933 1
29161 25891 25934 1
29162 25892 25893 am
29163 25892 25935 1
29164 25893 25894 am
29165 25893 25914 1
29166 25894 25936 1
29167 25895 25896 1
29168 25895 25937 1
29169 25895 25938 1
29170 25896 25897 am
29171 25896 25901 am
29172 25897 25898 am
29173 25898 25899 am
29174 25898 25939 1
29175 25899 25900 am
29176 25899 25908 am
29177 25900 25901 am
29178 25900 25905 am
29179 25901 25902 am
29180 25902 25903 am
29181 25902 25940 1
29182 25903 25904 am
29183 25903 25912 1
29184 25904 25905 am
29185 25904 25941 1
29186 25905 25906 am
29187 25906 25907 am
29188 25906 25916 1
29189 25907 25908 am
29190 25907 25942 1
29191 25908 25943 1
29192 25909 25944 1
29193 25910 25945 1
29194 25910 25946 1
29195 25910 25947 1
29196 25911 25948 1
29197 25912 25913 1
29198 25912 25949 1
29199 25912 25958 1
29200 25913 25950 1
29201 25913 25951 1
29202 25913 25952 1
29203 25914 25953 1
29204 25915 25954 1
29205 25916 25955 1
29206 25959 25960 am
29207 25964 25959 am
29208 25959 26011 1
29209 25960 25961 am
29210 25960 26019 1
29211 25961 25962 am
29212 25961 25967 1
29213 25962 25963 am
29214 25962 25965 1
29215 25963 25964 am
29216 25963 26020 1
29217 25964 26012 1
29218 25965 25966 am
29219 25965 25971 am
29220 25966 25967 1
29221 25966 25968 am
29222 25967 26021 1
29223 25967 26022 1
29224 25968 25969 am
29225 25968 25981 am
29226 25969 25970 am
29227 25969 25978 am
29228 25970 25971 am
29229 25970 25975 1
29230 25971 25972 1
29231 25972 25973 1
29232 25972 26023 1
29233 25972 26024 1
29234 25973 25974 1
29235 25973 26025 1
29236 25973 26026 1
29237 25974 25975 1
29238 25974 26027 1
29239 25974 26028 1
29240 25975 25976 am
29241 25976 25977 am
29242 25976 25985 1
29243 25977 25978 am
29244 25977 25982 1
29245 25978 25979 am
29246 25979 25980 am
29247 25979 25999 am
29248 25980 25981 am
29249 25980 25997 1
29250 25981 26013 1
29251 25982 25983 1
29252 25982 26029 1
29253 25982 26058 1
29254 25983 25984 am
29255 25983 25989 am
29256 25984 25985 1
29257 25984 25986 am
29258 25985 26030 1
29259 25985 26059 1
29260 25986 25987 am
29261 25986 26017 1
29262 25987 25988 am
29263 25987 25993 1
29264 25988 25989 am
29265 25988 25990 1
29266 25989 25994 am
29267 25990 25991 1
29268 25990 25996 am
29269 25991 25992 1
29270 25991 26031 1
29271 25991 26032 1
29272 25992 25993 1
29273 25992 26033 1
29274 25992 26034 1
29275 25993 26035 1
29276 25993 26036 1
29277 25994 25995 am
29278 25994 26037 1
29279 25995 25996 am
29280 25995 26016 1
29281 25996 26038 1
29282 25997 25998 1
29283 25997 26039 1
29284 25997 26040 1
29285 25998 25999 am
29286 25998 26003 am
29287 25999 26000 am
29288 26000 26001 am
29289 26000 26041 1
29290 26001 26002 am
29291 26001 26010 am
29292 26002 26003 am
29293 26002 26007 am
29294 26003 26004 am
29295 26004 26005 am
29296 26004 26042 1
29297 26005 26006 am
29298 26005 26014 1
29299 26006 26007 am
29300 26006 26043 1
29301 26007 26008 am
29302 26008 26009 am
29303 26008 26018 1
29304 26009 26010 am
29305 26009 26044 1
29306 26010 26045 1
29307 26011 26046 1
29308 26012 26047 1
29309 26012 26048 1
29310 26012 26049 1
29311 26013 26050 1
29312 26014 26015 1
29313 26014 26051 1
29314 26014 26060 1
29315 26015 26052 1
29316 26015 26053 1
29317 26015 26054 1
29318 26016 26055 1
29319 26017 26056 1
29320 26018 26057 1
29321 26061 26062 1
29322 26061 26066 1
29323 26061 26208 1
29324 26061 26209 1
29325 26063 26062 1
29326 26062 26210 1
29327 26062 26211 1
29328 26064 26063 1
29329 26063 26070 1
29330 26063 26212 1
29331 26065 26064 1
29332 26064 26067 1
29333 26064 26213 1
29334 26066 26065 1
29335 26065 26214 1
29336 26065 26215 1
29337 26068 26067 1
29338 26067 26074 1
29339 26067 26216 1
29340 26069 26068 1
29341 26068 26071 1
29342 26068 26217 1
29343 26070 26069 1
29344 26069 26218 1
29345 26069 26219 1
29346 26070 26220 1
29347 26070 26221 1
29348 26072 26071 1
29349 26073 26072 1
29350 26072 26078 1
29351 26072 26222 1
29352 26074 26073 1
29353 26073 26075 1
29354 26073 26223 1
29355 26074 26224 1
29356 26074 26225 1
29357 26076 26075 1
29358 26075 26085 2
29359 26077 26076 1
29360 26076 26082 1
29361 26078 26077 1
29362 26077 26079 1
29363 26078 26090 1
29364 26078 26226 1
29365 26080 26079 1
29366 26079 26092 1
29367 26081 26080 1
29368 26080 26089 1
29369 26082 26081 1
29370 26081 26086 1
29371 26082 26083 1
29372 26084 26083 1
29373 26083 26227 1
29374 26083 26228 1
29375 26085 26084 1
29376 26084 26229 1
29377 26084 26230 1
29378 26085 26231 1
29379 26087 26086 1
29380 26088 26087 1
29381 26087 26123 1
29382 26089 26088 1
29383 26088 26107 1
29384 26089 26105 1
29385 26091 26090 1
29386 26090 26096 2
29387 26092 26091 1
29388 26091 26093 1
29389 26091 26232 1
29390 26092 26106 1
29391 26094 26093 2
29392 26093 26100 1
29393 26095 26094 1
29394 26094 26097 1
29395 26096 26095 1
29396 26095 26233 1
29397 26095 26234 1
29398 26096 26235 1
29399 26098 26097 1
29400 26097 26236 1
29401 26097 26237 1
29402 26099 26098 1
29403 26098 26238 1
29404 26098 26239 1
29405 26100 26099 2
29406 26099 26104 1
29407 26100 26101 1
29408 26102 26101 1
29409 26101 26240 1
29410 26101 26241 1
29411 26103 26102 1
29412 26102 26177 1
29413 26102 26242 1
29414 26104 26103 1
29415 26103 26243 1
29416 26103 26244 1
29417 26104 26245 1
29418 26104 26246 1
29419 26106 26105 1
29420 26105 26109 1
29421 26106 26247 1
29422 26108 26107 1
29423 26107 26113 1
29424 26109 26108 1
29425 26108 26110 1
29426 26111 26110 1
29427 26110 26248 1
29428 26112 26111 1
29429 26111 26117 1
29430 26113 26112 1
29431 26112 26114 1
29432 26113 26122 1
29433 26115 26114 1
29434 26114 26124 1
29435 26116 26115 1
29436 26115 26121 1
29437 26117 26116 1
29438 26116 26118 1
29439 26117 26249 1
29440 26119 26118 1
29441 26118 26134 1
29442 26120 26119 1
29443 26119 26131 1
29444 26121 26120 1
29445 26120 26128 1
29446 26121 26126 1
29447 26123 26122 1
29448 26122 26125 1
29449 26123 26250 1
29450 26125 26124 1
29451 26124 26127 1
29452 26125 26143 1
29453 26127 26126 1
29454 26126 26130 1
29455 26127 26145 1
29456 26129 26128 1
29457 26128 26161 1
29458 26130 26129 1
29459 26129 26156 1
29460 26130 26154 1
29461 26132 26131 1
29462 26133 26132 1
29463 26132 26138 1
29464 26132 26251 1
29465 26134 26133 1
29466 26133 26135 1
29467 26133 26252 1
29468 26134 26180 1
29469 26134 26253 1
29470 26136 26135 1
29471 26135 26254 1
29472 26135 26255 1
29473 26137 26136 1
29474 26136 26256 1
29475 26136 26257 1
29476 26138 26137 1
29477 26137 26142 1
29478 26137 26258 1
29479 26138 26139 1
29480 26138 26259 1
29481 26140 26139 1
29482 26139 26260 1
29483 26139 26261 1
29484 26141 26140 1
29485 26140 26262 1
29486 26140 26263 1
29487 26142 26141 1
29488 26141 26264 1
29489 26141 26265 1
29490 26142 26266 1
29491 26144 26143 1
29492 26143 26149 1
29493 26145 26144 1
29494 26144 26146 1
29495 26145 26155 1
29496 26147 26146 1
29497 26148 26147 1
29498 26147 26153 1
29499 26147 26267 1
29500 26149 26148 1
29501 26148 26150 1
29502 26148 26268 1
29503 26151 26150 1
29504 26150 26269 1
29505 26150 26270 1
29506 26152 26151 1
29507 26151 26271 1
29508 26151 26272 1
29509 26153 26152 1
29510 26152 26273 1
29511 26152 26274 1
29512 26153 26275 1
29513 26153 26276 1
29514 26155 26154 1
29515 26154 26158 1
29516 26155 26277 1
29517 26157 26156 1
29518 26156 26159 1
29519 26158 26157 1
29520 26157 26162 1
29521 26158 26278 1
29522 26160 26159 1
29523 26159 26164 1
29524 26161 26160 1
29525 26160 26165 1
29526 26161 26279 1
29527 26163 26162 1
29528 26164 26163 1
29529 26163 26174 1
29530 26164 26167 1
29531 26166 26165 1
29532 26165 26171 1
29533 26165 26280 1
29534 26167 26166 1
29535 26166 26168 1
29536 26166 26281 1
29537 26167 26172 1
29538 26169 26168 1
29539 26168 26175 1
29540 26168 26282 1
29541 26170 26169 1
29542 26169 26283 1
29543 26169 26284 1
29544 26171 26170 1
29545 26170 26285 1
29546 26170 26286 1
29547 26171 26287 1
29548 26171 26288 1
29549 26173 26172 1
29550 26172 26176 1
29551 26174 26173 1
29552 26173 26184 1
29553 26174 26181 1
29554 26175 26176 1
29555 26175 26199 1
29556 26176 26195 1
29557 26177 26178 1
29558 26177 26179 1
29559 26177 26289 1
29560 26178 26290 1
29561 26178 26291 1
29562 26178 26292 1
29563 26179 26293 1
29564 26179 26294 1
29565 26179 26295 1
29566 26180 26296 1
29567 26182 26181 1
29568 26181 26297 1
29569 26183 26182 1
29570 26182 26298 1
29571 26184 26183 1
29572 26183 26188 1
29573 26184 26185 1
29574 26186 26185 1
29575 26185 26195 1
29576 26187 26186 1
29577 26186 26192 1
29578 26188 26187 1
29579 26187 26189 1
29580 26188 26299 1
29581 26190 26189 1
29582 26189 26300 1
29583 26191 26190 1
29584 26190 26301 1
29585 26192 26191 1
29586 26191 26198 1
29587 26192 26193 1
29588 26194 26193 1
29589 26193 26196 1
29590 26195 26194 1
29591 26194 26200 1
29592 26197 26196 1
29593 26196 26201 1
29594 26198 26197 1
29595 26197 26302 1
29596 26198 26303 1
29597 26200 26199 1
29598 26199 26304 1
29599 26200 26202 1
29600 26202 26201 1
29601 26201 26206 1
29602 26202 26203 1
29603 26204 26203 1
29604 26203 26305 1
29605 26203 26306 1
29606 26205 26204 1
29607 26204 26307 1
29608 26204 26308 1
29609 26206 26205 1
29610 26205 26309 1
29611 26205 26310 1
29612 26206 26207 2
29613 26311 26312 1
29614 26311 26316 1
29615 26311 26458 1
29616 26311 26459 1
29617 26313 26312 1
29618 26312 26460 1
29619 26312 26461 1
29620 26314 26313 1
29621 26313 26320 1
29622 26313 26462 1
29623 26315 26314 1
29624 26314 26317 1
29625 26314 26463 1
29626 26316 26315 1
29627 26315 26464 1
29628 26315 26465 1
29629 26318 26317 1
29630 26317 26324 1
29631 26317 26466 1
29632 26319 26318 1
29633 26318 26321 1
29634 26318 26467 1
29635 26320 26319 1
29636 26319 26468 1
29637 26319 26469 1
29638 26320 26470 1
29639 26320 26471 1
29640 26322 26321 1
29641 26323 26322 1
29642 26322 26328 1
29643 26322 26472 1
29644 26324 26323 1
29645 26323 26325 1
29646 26323 26473 1
29647 26324 26474 1
29648 26324 26475 1
29649 26326 26325 1
29650 26325 26335 2
29651 26327 26326 1
29652 26326 26332 1
29653 26328 26327 1
29654 26327 26329 1
29655 26328 26340 1
29656 26328 26476 1
29657 26330 26329 1
29658 26329 26342 1
29659 26331 26330 1
29660 26330 26339 1
29661 26332 26331 1
29662 26331 26336 1
29663 26332 26333 1
29664 26334 26333 1
29665 26333 26477 1
29666 26333 26478 1
29667 26335 26334 1
29668 26334 26479 1
29669 26334 26480 1
29670 26335 26481 1
29671 26337 26336 1
29672 26338 26337 1
29673 26337 26373 1
29674 26339 26338 1
29675 26338 26357 1
29676 26339 26355 1
29677 26341 26340 1
29678 26340 26346 2
29679 26342 26341 1
29680 26341 26343 1
29681 26341 26482 1
29682 26342 26356 1
29683 26344 26343 2
29684 26343 26350 1
29685 26345 26344 1
29686 26344 26347 1
29687 26346 26345 1
29688 26345 26483 1
29689 26345 26484 1
29690 26346 26485 1
29691 26348 26347 1
29692 26347 26486 1
29693 26347 26487 1
29694 26349 26348 1
29695 26348 26488 1
29696 26348 26489 1
29697 26350 26349 2
29698 26349 26354 1
29699 26350 26351 1
29700 26352 26351 1
29701 26351 26490 1
29702 26351 26491 1
29703 26353 26352 1
29704 26352 26427 1
29705 26352 26492 1
29706 26354 26353 1
29707 26353 26493 1
29708 26353 26494 1
29709 26354 26495 1
29710 26354 26496 1
29711 26356 26355 1
29712 26355 26359 1
29713 26356 26497 1
29714 26358 26357 1
29715 26357 26363 1
29716 26359 26358 1
29717 26358 26360 1
29718 26361 26360 1
29719 26360 26498 1
29720 26362 26361 1
29721 26361 26367 1
29722 26363 26362 1
29723 26362 26364 1
29724 26363 26372 1
29725 26365 26364 1
29726 26364 26374 1
29727 26366 26365 1
29728 26365 26371 1
29729 26367 26366 1
29730 26366 26368 1
29731 26367 26499 1
29732 26369 26368 1
29733 26368 26384 1
29734 26370 26369 1
29735 26369 26381 1
29736 26371 26370 1
29737 26370 26378 1
29738 26371 26376 1
29739 26373 26372 1
29740 26372 26375 1
29741 26373 26500 1
29742 26375 26374 1
29743 26374 26377 1
29744 26375 26393 1
29745 26377 26376 1
29746 26376 26380 1
29747 26377 26395 1
29748 26379 26378 1
29749 26378 26411 1
29750 26380 26379 1
29751 26379 26406 1
29752 26380 26404 1
29753 26382 26381 1
29754 26383 26382 1
29755 26382 26388 1
29756 26382 26501 1
29757 26384 26383 1
29758 26383 26385 1
29759 26383 26502 1
29760 26384 26430 1
29761 26384 26503 1
29762 26386 26385 1
29763 26385 26504 1
29764 26385 26505 1
29765 26387 26386 1
29766 26386 26506 1
29767 26386 26507 1
29768 26388 26387 1
29769 26387 26392 1
29770 26387 26508 1
29771 26388 26389 1
29772 26388 26509 1
29773 26390 26389 1
29774 26389 26510 1
29775 26389 26511 1
29776 26391 26390 1
29777 26390 26512 1
29778 26390 26513 1
29779 26392 26391 1
29780 26391 26514 1
29781 26391 26515 1
29782 26392 26516 1
29783 26394 26393 1
29784 26393 26399 1
29785 26395 26394 1
29786 26394 26396 1
29787 26395 26405 1
29788 26397 26396 1
29789 26398 26397 1
29790 26397 26403 1
29791 26397 26517 1
29792 26399 26398 1
29793 26398 26400 1
29794 26398 26518 1
29795 26401 26400 1
29796 26400 26519 1
29797 26400 26520 1
29798 26402 26401 1
29799 26401 26521 1
29800 26401 26522 1
29801 26403 26402 1
29802 26402 26523 1
29803 26402 26524 1
29804 26403 26525 1
29805 26403 26526 1
29806 26405 26404 1
29807 26404 26408 1
29808 26405 26527 1
29809 26407 26406 1
29810 26406 26409 1
29811 26408 26407 1
29812 26407 26412 1
29813 26408 26528 1
29814 26410 26409 1
29815 26409 26414 1
29816 26411 26410 1
29817 26410 26415 1
29818 26411 26529 1
29819 26413 26412 1
29820 26414 26413 1
29821 26413 26424 1
29822 26414 26417 1
29823 26416 26415 1
29824 26415 26421 1
29825 26415 26530 1
29826 26417 26416 1
29827 26416 26418 1
29828 26416 26531 1
29829 26417 26422 1
29830 26419 26418 1
29831 26418 26425 1
29832 26418 26532 1
29833 26420 26419 1
29834 26419 26533 1
29835 26419 26534 1
29836 26421 26420 1
29837 26420 26535 1
29838 26420 26536 1
29839 26421 26537 1
29840 26421 26538 1
29841 26423 26422 1
29842 26422 26426 1
29843 26424 26423 1
29844 26423 26434 1
29845 26424 26431 1
29846 26425 26426 1
29847 26425 26449 1
29848 26426 26445 1
29849 26427 26428 1
29850 26427 26429 1
29851 26427 26539 1
29852 26428 26540 1
29853 26428 26541 1
29854 26428 26542 1
29855 26429 26543 1
29856 26429 26544 1
29857 26429 26545 1
29858 26430 26546 1
29859 26432 26431 1
29860 26431 26547 1
29861 26433 26432 1
29862 26432 26548 1
29863 26434 26433 1
29864 26433 26438 1
29865 26434 26435 1
29866 26436 26435 1
29867 26435 26445 1
29868 26437 26436 1
29869 26436 26442 1
29870 26438 26437 1
29871 26437 26439 1
29872 26438 26549 1
29873 26440 26439 1
29874 26439 26550 1
29875 26441 26440 1
29876 26440 26551 1
29877 26442 26441 1
29878 26441 26448 1
29879 26442 26443 1
29880 26444 26443 1
29881 26443 26446 1
29882 26445 26444 1
29883 26444 26450 1
29884 26447 26446 1
29885 26446 26451 1
29886 26448 26447 1
29887 26447 26552 1
29888 26448 26553 1
29889 26450 26449 1
29890 26449 26554 1
29891 26450 26452 1
29892 26452 26451 1
29893 26451 26456 1
29894 26452 26453 1
29895 26454 26453 1
29896 26453 26555 1
29897 26453 26556 1
29898 26455 26454 1
29899 26454 26557 1
29900 26454 26558 1
29901 26456 26455 1
29902 26455 26559 1
29903 26455 26560 1
29904 26456 26457 2
29905 26561 26562 1
29906 26561 26566 1
29907 26561 26708 1
29908 26561 26709 1
29909 26563 26562 1
29910 26562 26710 1
29911 26562 26711 1
29912 26564 26563 1
29913 26563 26570 1
29914 26563 26712 1
29915 26565 26564 1
29916 26564 26567 1
29917 26564 26713 1
29918 26566 26565 1
29919 26565 26714 1
29920 26565 26715 1
29921 26568 26567 1
29922 26567 26574 1
29923 26567 26716 1
29924 26569 26568 1
29925 26568 26571 1
29926 26568 26717 1
29927 26570 26569 1
29928 26569 26718 1
29929 26569 26719 1
29930 26570 26720 1
29931 26570 26721 1
29932 26572 26571 1
29933 26573 26572 1
29934 26572 26578 1
29935 26572 26722 1
29936 26574 26573 1
29937 26573 26575 1
29938 26573 26723 1
29939 26574 26724 1
29940 26574 26725 1
29941 26576 26575 1
29942 26575 26585 2
29943 26577 26576 1
29944 26576 26582 1
29945 26578 26577 1
29946 26577 26579 1
29947 26578 26590 1
29948 26578 26726 1
29949 26580 26579 1
29950 26579 26592 1
29951 26581 26580 1
29952 26580 26589 1
29953 26582 26581 1
29954 26581 26586 1
29955 26582 26583 1
29956 26584 26583 1
29957 26583 26727 1
29958 26583 26728 1
29959 26585 26584 1
29960 26584 26729 1
29961 26584 26730 1
29962 26585 26731 1
29963 26587 26586 1
29964 26588 26587 1
29965 26587 26623 1
29966 26589 26588 1
29967 26588 26607 1
29968 26589 26605 1
29969 26591 26590 1
29970 26590 26596 2
29971 26592 26591 1
29972 26591 26593 1
29973 26591 26732 1
29974 26592 26606 1
29975 26594 26593 2
29976 26593 26600 1
29977 26595 26594 1
29978 26594 26597 1
29979 26596 26595 1
29980 26595 26733 1
29981 26595 26734 1
29982 26596 26735 1
29983 26598 26597 1
29984 26597 26736 1
29985 26597 26737 1
29986 26599 26598 1
29987 26598 26738 1
29988 26598 26739 1
29989 26600 26599 2
29990 26599 26604 1
29991 26600 26601 1
29992 26602 26601 1
29993 26601 26740 1
29994 26601 26741 1
29995 26603 26602 1
29996 26602 26677 1
29997 26602 26742 1
29998 26604 26603 1
29999 26603 26743 1
30000 26603 26744 1
30001 26604 26745 1
30002 26604 26746 1
30003 26606 26605 1
30004 26605 26609 1
30005 26606 26747 1
30006 26608 26607 1
30007 26607 26613 1
30008 26609 26608 1
30009 26608 26610 1
30010 26611 26610 1
30011 26610 26748 1
30012 26612 26611 1
30013 26611 26617 1
30014 26613 26612 1
30015 26612 26614 1
30016 26613 26622 1
30017 26615 26614 1
30018 26614 26624 1
30019 26616 26615 1
30020 26615 26621 1
30021 26617 26616 1
30022 26616 26618 1
30023 26617 26749 1
30024 26619 26618 1
30025 26618 26634 1
30026 26620 26619 1
30027 26619 26631 1
30028 26621 26620 1
30029 26620 26628 1
30030 26621 26626 1
30031 26623 26622 1
30032 26622 26625 1
30033 26623 26750 1
30034 26625 26624 1
30035 26624 26627 1
30036 26625 26643 1
30037 26627 26626 1
30038 26626 26630 1
30039 26627 26645 1
30040 26629 26628 1
30041 26628 26661 1
30042 26630 26629 1
30043 26629 26656 1
30044 26630 26654 1
30045 26632 26631 1
30046 26633 26632 1
30047 26632 26638 1
30048 26632 26751 1
30049 26634 26633 1
30050 26633 26635 1
30051 26633 26752 1
30052 26634 26680 1
30053 26634 26753 1
30054 26636 26635 1
30055 26635 26754 1
30056 26635 26755 1
30057 26637 26636 1
30058 26636 26756 1
30059 26636 26757 1
30060 26638 26637 1
30061 26637 26642 1
30062 26637 26758 1
30063 26638 26639 1
30064 26638 26759 1
30065 26640 26639 1
30066 26639 26760 1
30067 26639 26761 1
30068 26641 26640 1
30069 26640 26762 1
30070 26640 26763 1
30071 26642 26641 1
30072 26641 26764 1
30073 26641 26765 1
30074 26642 26766 1
30075 26644 26643 1
30076 26643 26649 1
30077 26645 26644 1
30078 26644 26646 1
30079 26645 26655 1
30080 26647 26646 1
30081 26648 26647 1
30082 26647 26653 1
30083 26647 26767 1
30084 26649 26648 1
30085 26648 26650 1
30086 26648 26768 1
30087 26651 26650 1
30088 26650 26769 1
30089 26650 26770 1
30090 26652 26651 1
30091 26651 26771 1
30092 26651 26772 1
30093 26653 26652 1
30094 26652 26773 1
30095 26652 26774 1
30096 26653 26775 1
30097 26653 26776 1
30098 26655 26654 1
30099 26654 26658 1
30100 26655 26777 1
30101 26657 26656 1
30102 26656 26659 1
30103 26658 26657 1
30104 26657 26662 1
30105 26658 26778 1
30106 26660 26659 1
30107 26659 26664 1
30108 26661 26660 1
30109 26660 26665 1
30110 26661 26779 1
30111 26663 26662 1
30112 26664 26663 1
30113 26663 26674 1
30114 26664 26667 1
30115 26666 26665 1
30116 26665 26671 1
30117 26665 26780 1
30118 26667 26666 1
30119 26666 26668 1
30120 26666 26781 1
30121 26667 26672 1
30122 26669 26668 1
30123 26668 26675 1
30124 26668 26782 1
30125 26670 26669 1
30126 26669 26783 1
30127 26669 26784 1
30128 26671 26670 1
30129 26670 26785 1
30130 26670 26786 1
30131 26671 26787 1
30132 26671 26788 1
30133 26673 26672 1
30134 26672 26676 1
30135 26674 26673 1
30136 26673 26684 1
30137 26674 26681 1
30138 26675 26676 1
30139 26675 26699 1
30140 26676 26695 1
30141 26677 26678 1
30142 26677 26679 1
30143 26677 26789 1
30144 26678 26790 1
30145 26678 26791 1
30146 26678 26792 1
30147 26679 26793 1
30148 26679 26794 1
30149 26679 26795 1
30150 26680 26796 1
30151 26682 26681 1
30152 26681 26797 1
30153 26683 26682 1
30154 26682 26798 1
30155 26684 26683 1
30156 26683 26688 1
30157 26684 26685 1
30158 26686 26685 1
30159 26685 26695 1
30160 26687 26686 1
30161 26686 26692 1
30162 26688 26687 1
30163 26687 26689 1
30164 26688 26799 1
30165 26690 26689 1
30166 26689 26800 1
30167 26691 26690 1
30168 26690 26801 1
30169 26692 26691 1
30170 26691 26698 1
30171 26692 26693 1
30172 26694 26693 1
30173 26693 26696 1
30174 26695 26694 1
30175 26694 26700 1
30176 26697 26696 1
30177 26696 26701 1
30178 26698 26697 1
30179 26697 26802 1
30180 26698 26803 1
30181 26700 26699 1
30182 26699 26804 1
30183 26700 26702 1
30184 26702 26701 1
30185 26701 26706 1
30186 26702 26703 1
30187 26704 26703 1
30188 26703 26805 1
30189 26703 26806 1
30190 26705 26704 1
30191 26704 26807 1
30192 26704 26808 1
30193 26706 26705 1
30194 26705 26809 1
30195 26705 26810 1
30196 26706 26707 2
30197 26811 26812 1
30198 26811 26816 1
30199 26811 26958 1
30200 26811 26959 1
30201 26813 26812 1
30202 26812 26960 1
30203 26812 26961 1
30204 26814 26813 1
30205 26813 26820 1
30206 26813 26962 1
30207 26815 26814 1
30208 26814 26817 1
30209 26814 26963 1
30210 26816 26815 1
30211 26815 26964 1
30212 26815 26965 1
30213 26818 26817 1
30214 26817 26824 1
30215 26817 26966 1
30216 26819 26818 1
30217 26818 26821 1
30218 26818 26967 1
30219 26820 26819 1
30220 26819 26968 1
30221 26819 26969 1
30222 26820 26970 1
30223 26820 26971 1
30224 26822 26821 1
30225 26823 26822 1
30226 26822 26828 1
30227 26822 26972 1
30228 26824 26823 1
30229 26823 26825 1
30230 26823 26973 1
30231 26824 26974 1
30232 26824 26975 1
30233 26826 26825 1
30234 26825 26835 2
30235 26827 26826 1
30236 26826 26832 1
30237 26828 26827 1
30238 26827 26829 1
30239 26828 26840 1
30240 26828 26976 1
30241 26830 26829 1
30242 26829 26842 1
30243 26831 26830 1
30244 26830 26839 1
30245 26832 26831 1
30246 26831 26836 1
30247 26832 26833 1
30248 26834 26833 1
30249 26833 26977 1
30250 26833 26978 1
30251 26835 26834 1
30252 26834 26979 1
30253 26834 26980 1
30254 26835 26981 1
30255 26837 26836 1
30256 26838 26837 1
30257 26837 26873 1
30258 26839 26838 1
30259 26838 26857 1
30260 26839 26855 1
30261 26841 26840 1
30262 26840 26846 2
30263 26842 26841 1
30264 26841 26843 1
30265 26841 26982 1
30266 26842 26856 1
30267 26844 26843 2
30268 26843 26850 1
30269 26845 26844 1
30270 26844 26847 1
30271 26846 26845 1
30272 26845 26983 1
30273 26845 26984 1
30274 26846 26985 1
30275 26848 26847 1
30276 26847 26986 1
30277 26847 26987 1
30278 26849 26848 1
30279 26848 26988 1
30280 26848 26989 1
30281 26850 26849 2
30282 26849 26854 1
30283 26850 26851 1
30284 26852 26851 1
30285 26851 26990 1
30286 26851 26991 1
30287 26853 26852 1
30288 26852 26927 1
30289 26852 26992 1
30290 26854 26853 1
30291 26853 26993 1
30292 26853 26994 1
30293 26854 26995 1
30294 26854 26996 1
30295 26856 26855 1
30296 26855 26859 1
30297 26856 26997 1
30298 26858 26857 1
30299 26857 26863 1
30300 26859 26858 1
30301 26858 26860 1
30302 26861 26860 1
30303 26860 26998 1
30304 26862 26861 1
30305 26861 26867 1
30306 26863 26862 1
30307 26862 26864 1
30308 26863 26872 1
30309 26865 26864 1
30310 26864 26874 1
30311 26866 26865 1
30312 26865 26871 1
30313 26867 26866 1
30314 26866 26868 1
30315 26867 26999 1
30316 26869 26868 1
30317 26868 26884 1
30318 26870 26869 1
30319 26869 26881 1
30320 26871 26870 1
30321 26870 26878 1
30322 26871 26876 1
30323 26873 26872 1
30324 26872 26875 1
30325 26873 27000 1
30326 26875 26874 1
30327 26874 26877 1
30328 26875 26893 1
30329 26877 26876 1
30330 26876 26880 1
30331 26877 26895 1
30332 26879 26878 1
30333 26878 26911 1
30334 26880 26879 1
30335 26879 26906 1
30336 26880 26904 1
30337 26882 26881 1
30338 26883 26882 1
30339 26882 26888 1
30340 26882 27001 1
30341 26884 26883 1
30342 26883 26885 1
30343 26883 27002 1
30344 26884 26930 1
30345 26884 27003 1
30346 26886 26885 1
30347 26885 27004 1
30348 26885 27005 1
30349 26887 26886 1
30350 26886 27006 1
30351 26886 27007 1
30352 26888 26887 1
30353 26887 26892 1
30354 26887 27008 1
30355 26888 26889 1
30356 26888 27009 1
30357 26890 26889 1
30358 26889 27010 1
30359 26889 27011 1
30360 26891 26890 1
30361 26890 27012 1
30362 26890 27013 1
30363 26892 26891 1
30364 26891 27014 1
30365 26891 27015 1
30366 26892 27016 1
30367 26894 26893 1
30368 26893 26899 1
30369 26895 26894 1
30370 26894 26896 1
30371 26895 26905 1
30372 26897 26896 1
30373 26898 26897 1
30374 26897 26903 1
30375 26897 27017 1
30376 26899 26898 1
30377 26898 26900 1
30378 26898 27018 1
30379 26901 26900 1
30380 26900 27019 1
30381 26900 27020 1
30382 26902 26901 1
30383 26901 27021 1
30384 26901 27022 1
30385 26903 26902 1
30386 26902 27023 1
30387 26902 27024 1
30388 26903 27025 1
30389 26903 27026 1
30390 26905 26904 1
30391 26904 26908 1
30392 26905 27027 1
30393 26907 26906 1
30394 26906 26909 1
30395 26908 26907 1
30396 26907 26912 1
30397 26908 27028 1
30398 26910 26909 1
30399 26909 26914 1
30400 26911 26910 1
30401 26910 26915 1
30402 26911 27029 1
30403 26913 26912 1
30404 26914 26913 1
30405 26913 26924 1
30406 26914 26917 1
30407 26916 26915 1
30408 26915 26921 1
30409 26915 27030 1
30410 26917 26916 1
30411 26916 26918 1
30412 26916 27031 1
30413 26917 26922 1
30414 26919 26918 1
30415 26918 26925 1
30416 26918 27032 1
30417 26920 26919 1
30418 26919 27033 1
30419 26919 27034 1
30420 26921 26920 1
30421 26920 27035 1
30422 26920 27036 1
30423 26921 27037 1
30424 26921 27038 1
30425 26923 26922 1
30426 26922 26926 1
30427 26924 26923 1
30428 26923 26934 1
30429 26924 26931 1
30430 26925 26926 1
30431 26925 26949 1
30432 26926 26945 1
30433 26927 26928 1
30434 26927 26929 1
30435 26927 27039 1
30436 26928 27040 1
30437 26928 27041 1
30438 26928 27042 1
30439 26929 27043 1
30440 26929 27044 1
30441 26929 27045 1
30442 26930 27046 1
30443 26932 26931 1
30444 26931 27047 1
30445 26933 26932 1
30446 26932 27048 1
30447 26934 26933 1
30448 26933 26938 1
30449 26934 26935 1
30450 26936 26935 1
30451 26935 26945 1
30452 26937 26936 1
30453 26936 26942 1
30454 26938 26937 1
30455 26937 26939 1
30456 26938 27049 1
30457 26940 26939 1
30458 26939 27050 1
30459 26941 26940 1
30460 26940 27051 1
30461 26942 26941 1
30462 26941 26948 1
30463 26942 26943 1
30464 26944 26943 1
30465 26943 26946 1
30466 26945 26944 1
30467 26944 26950 1
30468 26947 26946 1
30469 26946 26951 1
30470 26948 26947 1
30471 26947 27052 1
30472 26948 27053 1
30473 26950 26949 1
30474 26949 27054 1
30475 26950 26952 1
30476 26952 26951 1
30477 26951 26956 1
30478 26952 26953 1
30479 26954 26953 1
30480 26953 27055 1
30481 26953 27056 1
30482 26955 26954 1
30483 26954 27057 1
30484 26954 27058 1
30485 26956 26955 1
30486 26955 27059 1
30487 26955 27060 1
30488 26956 26957 2
30489 27061 27062 1
30490 27061 27066 1
30491 27061 27208 1
30492 27061 27209 1
30493 27063 27062 1
30494 27062 27210 1
30495 27062 27211 1
30496 27064 27063 1
30497 27063 27070 1
30498 27063 27212 1
30499 27065 27064 1
30500 27064 27067 1
30501 27064 27213 1
30502 27066 27065 1
30503 27065 27214 1
30504 27065 27215 1
30505 27068 27067 1
30506 27067 27074 1
30507 27067 27216 1
30508 27069 27068 1
30509 27068 27071 1
30510 27068 27217 1
30511 27070 27069 1
30512 27069 27218 1
30513 27069 27219 1
30514 27070 27220 1
30515 27070 27221 1
30516 27072 27071 1
30517 27073 27072 1
30518 27072 27078 1
30519 27072 27222 1
30520 27074 27073 1
30521 27073 27075 1
30522 27073 27223 1
30523 27074 27224 1
30524 27074 27225 1
30525 27076 27075 1
30526 27075 27085 2
30527 27077 27076 1
30528 27076 27082 1
30529 27078 27077 1
30530 27077 27079 1
30531 27078 27090 1
30532 27078 27226 1
30533 27080 27079 1
30534 27079 27092 1
30535 27081 27080 1
30536 27080 27089 1
30537 27082 27081 1
30538 27081 27086 1
30539 27082 27083 1
30540 27084 27083 1
30541 27083 27227 1
30542 27083 27228 1
30543 27085 27084 1
30544 27084 27229 1
30545 27084 27230 1
30546 27085 27231 1
30547 27087 27086 1
30548 27088 27087 1
30549 27087 27123 1
30550 27089 27088 1
30551 27088 27107 1
30552 27089 27105 1
30553 27091 27090 1
30554 27090 27096 2
30555 27092 27091 1
30556 27091 27093 1
30557 27091 27232 1
30558 27092 27106 1
30559 27094 27093 2
30560 27093 27100 1
30561 27095 27094 1
30562 27094 27097 1
30563 27096 27095 1
30564 27095 27233 1
30565 27095 27234 1
30566 27096 27235 1
30567 27098 27097 1
30568 27097 27236 1
30569 27097 27237 1
30570 27099 27098 1
30571 27098 27238 1
30572 27098 27239 1
30573 27100 27099 2
30574 27099 27104 1
30575 27100 27101 1
30576 27102 27101 1
30577 27101 27240 1
30578 27101 27241 1
30579 27103 27102 1
30580 27102 27177 1
30581 27102 27242 1
30582 27104 27103 1
30583 27103 27243 1
30584 27103 27244 1
30585 27104 27245 1
30586 27104 27246 1
30587 27106 27105 1
30588 27105 27109 1
30589 27106 27247 1
30590 27108 27107 1
30591 27107 27113 1
30592 27109 27108 1
30593 27108 27110 1
30594 27111 27110 1
30595 27110 27248 1
30596 27112 27111 1
30597 27111 27117 1
30598 27113 27112 1
30599 27112 27114 1
30600 27113 27122 1
30601 27115 27114 1
30602 27114 27124 1
30603 27116 27115 1
30604 27115 27121 1
30605 27117 27116 1
30606 27116 27118 1
30607 27117 27249 1
30608 27119 27118 1
30609 27118 27134 1
30610 27120 27119 1
30611 27119 27131 1
30612 27121 27120 1
30613 27120 27128 1
30614 27121 27126 1
30615 27123 27122 1
30616 27122 27125 1
30617 27123 27250 1
30618 27125 27124 1
30619 27124 27127 1
30620 27125 27143 1
30621 27127 27126 1
30622 27126 27130 1
30623 27127 27145 1
30624 27129 27128 1
30625 27128 27161 1
30626 27130 27129 1
30627 27129 27156 1
30628 27130 27154 1
30629 27132 27131 1
30630 27133 27132 1
30631 27132 27138 1
30632 27132 27251 1
30633 27134 27133 1
30634 27133 27135 1
30635 27133 27252 1
30636 27134 27180 1
30637 27134 27253 1
30638 27136 27135 1
30639 27135 27254 1
30640 27135 27255 1
30641 27137 27136 1
30642 27136 27256 1
30643 27136 27257 1
30644 27138 27137 1
30645 27137 27142 1
30646 27137 27258 1
30647 27138 27139 1
30648 27138 27259 1
30649 27140 27139 1
30650 27139 27260 1
30651 27139 27261 1
30652 27141 27140 1
30653 27140 27262 1
30654 27140 27263 1
30655 27142 27141 1
30656 27141 27264 1
30657 27141 27265 1
30658 27142 27266 1
30659 27144 27143 1
30660 27143 27149 1
30661 27145 27144 1
30662 27144 27146 1
30663 27145 27155 1
30664 27147 27146 1
30665 27148 27147 1
30666 27147 27153 1
30667 27147 27267 1
30668 27149 27148 1
30669 27148 27150 1
30670 27148 27268 1
30671 27151 27150 1
30672 27150 27269 1
30673 27150 27270 1
30674 27152 27151 1
30675 27151 27271 1
30676 27151 27272 1
30677 27153 27152 1
30678 27152 27273 1
30679 27152 27274 1
30680 27153 27275 1
30681 27153 27276 1
30682 27155 27154 1
30683 27154 27158 1
30684 27155 27277 1
30685 27157 27156 1
30686 27156 27159 1
30687 27158 27157 1
30688 27157 27162 1
30689 27158 27278 1
30690 27160 27159 1
30691 27159 27164 1
30692 27161 27160 1
30693 27160 27165 1
30694 27161 27279 1
30695 27163 27162 1
30696 27164 27163 1
30697 27163 27174 1
30698 27164 27167 1
30699 27166 27165 1
30700 27165 27171 1
30701 27165 27280 1
30702 27167 27166 1
30703 27166 27168 1
30704 27166 27281 1
30705 27167 27172 1
30706 27169 27168 1
30707 27168 27175 1
30708 27168 27282 1
30709 27170 27169 1
30710 27169 27283 1
30711 27169 27284 1
30712 27171 27170 1
30713 27170 27285 1
30714 27170 27286 1
30715 27171 27287 1
30716 27171 27288 1
30717 27173 27172 1
30718 27172 27176 1
30719 27174 27173 1
30720 27173 27184 1
30721 27174 27181 1
30722 27175 27176 1
30723 27175 27199 1
30724 27176 27195 1
30725 27177 27178 1
30726 27177 27179 1
30727 27177 27289 1
30728 27178 27290 1
30729 27178 27291 1
30730 27178 27292 1
30731 27179 27293 1
30732 27179 27294 1
30733 27179 27295 1
30734 27180 27296 1
30735 27182 27181 1
30736 27181 27297 1
30737 27183 27182 1
30738 27182 27298 1
30739 27184 27183 1
30740 27183 27188 1
30741 27184 27185 1
30742 27186 27185 1
30743 27185 27195 1
30744 27187 27186 1
30745 27186 27192 1
30746 27188 27187 1
30747 27187 27189 1
30748 27188 27299 1
30749 27190 27189 1
30750 27189 27300 1
30751 27191 27190 1
30752 27190 27301 1
30753 27192 27191 1
30754 27191 27198 1
30755 27192 27193 1
30756 27194 27193 1
30757 27193 27196 1
30758 27195 27194 1
30759 27194 27200 1
30760 27197 27196 1
30761 27196 27201 1
30762 27198 27197 1
30763 27197 27302 1
30764 27198 27303 1
30765 27200 27199 1
30766 27199 27304 1
30767 27200 27202 1
30768 27202 27201 1
30769 27201 27206 1
30770 27202 27203 1
30771 27204 27203 1
30772 27203 27305 1
30773 27203 27306 1
30774 27205 27204 1
30775 27204 27307 1
30776 27204 27308 1
30777 27206 27205 1
30778 27205 27309 1
30779 27205 27310 1
30780 27206 27207 2
30781 27311 27312 1
30782 27311 27316 1
30783 27311 27458 1
30784 27311 27459 1
30785 27313 27312 1
30786 27312 27460 1
30787 27312 27461 1
30788 27314 27313 1
30789 27313 27320 1
30790 27313 27462 1
30791 27315 27314 1
30792 27314 27317 1
30793 27314 27463 1
30794 27316 27315 1
30795 27315 27464 1
30796 27315 27465 1
30797 27318 27317 1
30798 27317 27324 1
30799 27317 27466 1
30800 27319 27318 1
30801 27318 27321 1
30802 27318 27467 1
30803 27320 27319 1
30804 27319 27468 1
30805 27319 27469 1
30806 27320 27470 1
30807 27320 27471 1
30808 27322 27321 1
30809 27323 27322 1
30810 27322 27328 1
30811 27322 27472 1
30812 27324 27323 1
30813 27323 27325 1
30814 27323 27473 1
30815 27324 27474 1
30816 27324 27475 1
30817 27326 27325 1
30818 27325 27335 2
30819 27327 27326 1
30820 27326 27332 1
30821 27328 27327 1
30822 27327 27329 1
30823 27328 27340 1
30824 27328 27476 1
30825 27330 27329 1
30826 27329 27342 1
30827 27331 27330 1
30828 27330 27339 1
30829 27332 27331 1
30830 27331 27336 1
30831 27332 27333 1
30832 27334 27333 1
30833 27333 27477 1
30834 27333 27478 1
30835 27335 27334 1
30836 27334 27479 1
30837 27334 27480 1
30838 27335 27481 1
30839 27337 27336 1
30840 27338 27337 1
30841 27337 27373 1
30842 27339 27338 1
30843 27338 27357 1
30844 27339 27355 1
30845 27341 27340 1
30846 27340 27346 2
30847 27342 27341 1
30848 27341 27343 1
30849 27341 27482 1
30850 27342 27356 1
30851 27344 27343 2
30852 27343 27350 1
30853 27345 27344 1
30854 27344 27347 1
30855 27346 27345 1
30856 27345 27483 1
30857 27345 27484 1
30858 27346 27485 1
30859 27348 27347 1
30860 27347 27486 1
30861 27347 27487 1
30862 27349 27348 1
30863 27348 27488 1
30864 27348 27489 1
30865 27350 27349 2
30866 27349 27354 1
30867 27350 27351 1
30868 27352 27351 1
30869 27351 27490 1
30870 27351 27491 1
30871 27353 27352 1
30872 27352 27427 1
30873 27352 27492 1
30874 27354 27353 1
30875 27353 27493 1
30876 27353 27494 1
30877 27354 27495 1
30878 27354 27496 1
30879 27356 27355 1
30880 27355 27359 1
30881 27356 27497 1
30882 27358 27357 1
30883 27357 27363 1
30884 27359 27358 1
30885 27358 27360 1
30886 27361 27360 1
30887 27360 27498 1
30888 27362 27361 1
30889 27361 27367 1
30890 27363 27362 1
30891 27362 27364 1
30892 27363 27372 1
30893 27365 27364 1
30894 27364 27374 1
30895 27366 27365 1
30896 27365 27371 1
30897 27367 27366 1
30898 27366 27368 1
30899 27367 27499 1
30900 27369 27368 1
30901 27368 27384 1
30902 27370 27369 1
30903 27369 27381 1
30904 27371 27370 1
30905 27370 27378 1
30906 27371 27376 1
30907 27373 27372 1
30908 27372 27375 1
30909 27373 27500 1
30910 27375 27374 1
30911 27374 27377 1
30912 27375 27393 1
30913 27377 27376 1
30914 27376 27380 1
30915 27377 27395 1
30916 27379 27378 1
30917 27378 27411 1
30918 27380 27379 1
30919 27379 27406 1
30920 27380 27404 1
30921 27382 27381 1
30922 27383 27382 1
30923 27382 27388 1
30924 27382 27501 1
30925 27384 27383 1
30926 27383 27385 1
30927 27383 27502 1
30928 27384 27430 1
30929 27384 27503 1
30930 27386 27385 1
30931 27385 27504 1
30932 27385 27505 1
30933 27387 27386 1
30934 27386 27506 1
30935 27386 27507 1
30936 27388 27387 1
30937 27387 27392 1
30938 27387 27508 1
30939 27388 27389 1
30940 27388 27509 1
30941 27390 27389 1
30942 27389 27510 1
30943 27389 27511 1
30944 27391 27390 1
30945 27390 27512 1
30946 27390 27513 1
30947 27392 27391 1
30948 27391 27514 1
30949 27391 27515 1
30950 27392 27516 1
30951 27394 27393 1
30952 27393 27399 1
30953 27395 27394 1
30954 27394 27396 1
30955 27395 27405 1
30956 27397 27396 1
30957 27398 27397 1
30958 27397 27403 1
30959 27397 27517 1
30960 27399 27398 1
30961 27398 27400 1
30962 27398 27518 1
30963 27401 27400 1
30964 27400 27519 1
30965 27400 27520 1
30966 27402 27401 1
30967 27401 27521 1
30968 27401 27522 1
30969 27403 27402 1
30970 27402 27523 1
30971 27402 27524 1
30972 27403 27525 1
30973 27403 27526 1
30974 27405 27404 1
30975 27404 27408 1
30976 27405 27527 1
30977 27407 27406 1
30978 27406 27409 1
30979 27408 27407 1
30980 27407 27412 1
30981 27408 27528 1
30982 27410 27409 1
30983 27409 27414 1
30984 27411 27410 1
30985 27410 27415 1
30986 27411 27529 1
30987 27413 27412 1
30988 27414 27413 1
30989 27413 27424 1
30990 27414 27417 1
30991 27416 27415 1
30992 27415 27421 1
30993 27415 27530 1
30994 27417 27416 1
30995 27416 27418 1
30996 27416 27531 1
30997 27417 27422 1
30998 27419 27418 1
30999 27418 27425 1
31000 27418 27532 1
31001 27420 27419 1
31002 27419 27533 1
31003 27419 27534 1
31004 27421 27420 1
31005 27420 27535 1
31006 27420 27536 1
31007 27421 27537 1
31008 27421 27538 1
31009 27423 27422 1
31010 27422 27426 1
31011 27424 27423 1
31012 27423 27434 1
31013 27424 27431 1
31014 27425 27426 1
31015 27425 27449 1
31016 27426 27445 1
31017 27427 27428 1
31018 27427 27429 1
31019 27427 27539 1
31020 27428 27540 1
31021 27428 27541 1
31022 27428 27542 1
31023 27429 27543 1
31024 27429 27544 1
31025 27429 27545 1
31026 27430 27546 1
31027 27432 27431 1
31028 27431 27547 1
31029 27433 27432 1
31030 27432 27548 1
31031 27434 27433 1
31032 27433 27438 1
31033 27434 27435 1
31034 27436 27435 1
31035 27435 27445 1
31036 27437 27436 1
31037 27436 27442 1
31038 27438 27437 1
31039 27437 27439 1
31040 27438 27549 1
31041 27440 27439 1
31042 27439 27550 1
31043 27441 27440 1
31044 27440 27551 1
31045 27442 27441 1
31046 27441 27448 1
31047 27442 27443 1
31048 27444 27443 1
31049 27443 27446 1
31050 27445 27444 1
31051 27444 27450 1
31052 27447 27446 1
31053 27446 27451 1
31054 27448 27447 1
31055 27447 27552 1
31056 27448 27553 1
31057 27450 27449 1
31058 27449 27554 1
31059 27450 27452 1
31060 27452 27451 1
31061 27451 27456 1
31062 27452 27453 1
31063 27454 27453 1
31064 27453 27555 1
31065 27453 27556 1
31066 27455 27454 1
31067 27454 27557 1
31068 27454 27558 1
31069 27456 27455 1
31070 27455 27559 1
31071 27455 27560 1
31072 27456 27457 2
31073 27561 27562 1
31074 27561 27566 1
31075 27561 27708 1
31076 27561 27709 1
31077 27563 27562 1
31078 27562 27710 1
31079 27562 27711 1
31080 27564 27563 1
31081 27563 27570 1
31082 27563 27712 1
31083 27565 27564 1
31084 27564 27567 1
31085 27564 27713 1
31086 27566 27565 1
31087 27565 27714 1
31088 27565 27715 1
31089 27568 27567 1
31090 27567 27574 1
31091 27567 27716 1
31092 27569 27568 1
31093 27568 27571 1
31094 27568 27717 1
31095 27570 27569 1
31096 27569 27718 1
31097 27569 27719 1
31098 27570 27720 1
31099 27570 27721 1
31100 27572 27571 1
31101 27573 27572 1
31102 27572 27578 1
31103 27572 27722 1
31104 27574 27573 1
31105 27573 27575 1
31106 27573 27723 1
31107 27574 27724 1
31108 27574 27725 1
31109 27576 27575 1
31110 27575 27585 2
31111 27577 27576 1
31112 27576 27582 1
31113 27578 27577 1
31114 27577 27579 1
31115 27578 27590 1
31116 27578 27726 1
31117 27580 27579 1
31118 27579 27592 1
31119 27581 27580 1
31120 27580 27589 1
31121 27582 27581 1
31122 27581 27586 1
31123 27582 27583 1
31124 27584 27583 1
31125 27583 27727 1
31126 27583 27728 1
31127 27585 27584 1
31128 27584 27729 1
31129 27584 27730 1
31130 27585 27731 1
31131 27587 27586 1
31132 27588 27587 1
31133 27587 27623 1
31134 27589 27588 1
31135 27588 27607 1
31136 27589 27605 1
31137 27591 27590 1
31138 27590 27596 2
31139 27592 27591 1
31140 27591 27593 1
31141 27591 27732 1
31142 27592 27606 1
31143 27594 27593 2
31144 27593 27600 1
31145 27595 27594 1
31146 27594 27597 1
31147 27596 27595 1
31148 27595 27733 1
31149 27595 27734 1
31150 27596 27735 1
31151 27598 27597 1
31152 27597 27736 1
31153 27597 27737 1
31154 27599 27598 1
31155 27598 27738 1
31156 27598 27739 1
31157 27600 27599 2
31158 27599 27604 1
31159 27600 27601 1
31160 27602 27601 1
31161 27601 27740 1
31162 27601 27741 1
31163 27603 27602 1
31164 27602 27677 1
31165 27602 27742 1
31166 27604 27603 1
31167 27603 27743 1
31168 27603 27744 1
31169 27604 27745 1
31170 27604 27746 1
31171 27606 27605 1
31172 27605 27609 1
31173 27606 27747 1
31174 27608 27607 1
31175 27607 27613 1
31176 27609 27608 1
31177 27608 27610 1
31178 27611 27610 1
31179 27610 27748 1
31180 27612 27611 1
31181 27611 27617 1
31182 27613 27612 1
31183 27612 27614 1
31184 27613 27622 1
31185 27615 27614 1
31186 27614 27624 1
31187 27616 27615 1
31188 27615 27621 1
31189 27617 27616 1
31190 27616 27618 1
31191 27617 27749 1
31192 27619 27618 1
31193 27618 27634 1
31194 27620 27619 1
31195 27619 27631 1
31196 27621 27620 1
31197 27620 27628 1
31198 27621 27626 1
31199 27623 27622 1
31200 27622 27625 1
31201 27623 27750 1
31202 27625 27624 1
31203 27624 27627 1
31204 27625 27643 1
31205 27627 27626 1
31206 27626 27630 1
31207 27627 27645 1
31208 27629 27628 1
31209 27628 27661 1
31210 27630 27629 1
31211 27629 27656 1
31212 27630 27654 1
31213 27632 27631 1
31214 27633 27632 1
31215 27632 27638 1
31216 27632 27751 1
31217 27634 27633 1
31218 27633 27635 1
31219 27633 27752 1
31220 27634 27680 1
31221 27634 27753 1
31222 27636 27635 1
31223 27635 27754 1
31224 27635 27755 1
31225 27637 27636 1
31226 27636 27756 1
31227 27636 27757 1
31228 27638 27637 1
31229 27637 27642 1
31230 27637 27758 1
31231 27638 27639 1
31232 27638 27759 1
31233 27640 27639 1
31234 27639 27760 1
31235 27639 27761 1
31236 27641 27640 1
31237 27640 27762 1
31238 27640 27763 1
31239 27642 27641 1
31240 27641 27764 1
31241 27641 27765 1
31242 27642 27766 1
31243 27644 27643 1
31244 27643 27649 1
31245 27645 27644 1
31246 27644 27646 1
31247 27645 27655 1
31248 27647 27646 1
31249 27648 27647 1
31250 27647 27653 1
31251 27647 27767 1
31252 27649 27648 1
31253 27648 27650 1
31254 27648 27768 1
31255 27651 27650 1
31256 27650 27769 1
31257 27650 27770 1
31258 27652 27651 1
31259 27651 27771 1
31260 27651 27772 1
31261 27653 27652 1
31262 27652 27773 1
31263 27652 27774 1
31264 27653 27775 1
31265 27653 27776 1
31266 27655 27654 1
31267 27654 27658 1
31268 27655 27777 1
31269 27657 27656 1
31270 27656 27659 1
31271 27658 27657 1
31272 27657 27662 1
31273 27658 27778 1
31274 27660 27659 1
31275 27659 27664 1
31276 27661 27660 1
31277 27660 27665 1
31278 27661 27779 1
31279 27663 27662 1
31280 27664 27663 1
31281 27663 27674 1
31282 27664 27667 1
31283 27666 27665 1
31284 27665 27671 1
31285 27665 27780 1
31286 27667 27666 1
31287 27666 27668 1
31288 27666 27781 1
31289 27667 27672 1
31290 27669 27668 1
31291 27668 27675 1
31292 27668 27782 1
31293 27670 27669 1
31294 27669 27783 1
31295 27669 27784 1
31296 27671 27670 1
31297 27670 27785 1
31298 27670 27786 1
31299 27671 27787 1
31300 27671 27788 1
31301 27673 27672 1
31302 27672 27676 1
31303 27674 27673 1
31304 27673 27684 1
31305 27674 27681 1
31306 27675 27676 1
31307 27675 27699 1
31308 27676 27695 1
31309 27677 27678 1
31310 27677 27679 1
31311 27677 27789 1
31312 27678 27790 1
31313 27678 27791 1
31314 27678 27792 1
31315 27679 27793 1
31316 27679 27794 1
31317 27679 27795 1
31318 27680 27796 1
31319 27682 27681 1
31320 27681 27797 1
31321 27683 27682 1
31322 27682 27798 1
31323 27684 27683 1
31324 27683 27688 1
31325 27684 27685 1
31326 27686 27685 1
31327 27685 27695 1
31328 27687 27686 1
31329 27686 27692 1
31330 27688 27687 1
31331 27687 27689 1
31332 27688 27799 1
31333 27690 27689 1
31334 27689 27800 1
31335 27691 27690 1
31336 27690 27801 1
31337 27692 27691 1
31338 27691 27698 1
31339 27692 27693 1
31340 27694 27693 1
31341 27693 27696 1
31342 27695 27694 1
31343 27694 27700 1
31344 27697 27696 1
31345 27696 27701 1
31346 27698 27697 1
31347 27697 27802 1
31348 27698 27803 1
31349 27700 27699 1
31350 27699 27804 1
31351 27700 27702 1
31352 27702 27701 1
31353 27701 27706 1
31354 27702 27703 1
31355 27704 27703 1
31356 27703 27805 1
31357 27703 27806 1
31358 27705 27704 1
31359 27704 27807 1
31360 27704 27808 1
31361 27706 27705 1
31362 27705 27809 1
31363 27705 27810 1
31364 27706 27707 2
31365 27811 27812 1
31366 27811 27816 1
31367 27811 27958 1
31368 27811 27959 1
31369 27813 27812 1
31370 27812 27960 1
31371 27812 27961 1
31372 27814 27813 1
31373 27813 27820 1
31374 27813 27962 1
31375 27815 27814 1
31376 27814 27817 1
31377 27814 27963 1
31378 27816 27815 1
31379 27815 27964 1
31380 27815 27965 1
31381 27818 27817 1
31382 27817 27824 1
31383 27817 27966 1
31384 27819 27818 1
31385 27818 27821 1
31386 27818 27967 1
31387 27820 27819 1
31388 27819 27968 1
31389 27819 27969 1
31390 27820 27970 1
31391 27820 27971 1
31392 27822 27821 1
31393 27823 27822 1
31394 27822 27828 1
31395 27822 27972 1
31396 27824 27823 1
31397 27823 27825 1
31398 27823 27973 1
31399 27824 27974 1
31400 27824 27975 1
31401 27826 27825 1
31402 27825 27835 2
31403 27827 27826 1
31404 27826 27832 1
31405 27828 27827 1
31406 27827 27829 1
31407 27828 27840 1
31408 27828 27976 1
31409 27830 27829 1
31410 27829 27842 1
31411 27831 27830 1
31412 27830 27839 1
31413 27832 27831 1
31414 27831 27836 1
31415 27832 27833 1
31416 27834 27833 1
31417 27833 27977 1
31418 27833 27978 1
31419 27835 27834 1
31420 27834 27979 1
31421 27834 27980 1
31422 27835 27981 1
31423 27837 27836 1
31424 27838 27837 1
31425 27837 27873 1
31426 27839 27838 1
31427 27838 27857 1
31428 27839 27855 1
31429 27841 27840 1
31430 27840 27846 2
31431 27842 27841 1
31432 27841 27843 1
31433 27841 27982 1
31434 27842 27856 1
31435 27844 27843 2
31436 27843 27850 1
31437 27845 27844 1
31438 27844 27847 1
31439 27846 27845 1
31440 27845 27983 1
31441 27845 27984 1
31442 27846 27985 1
31443 27848 27847 1
31444 27847 27986 1
31445 27847 27987 1
31446 27849 27848 1
31447 27848 27988 1
31448 27848 27989 1
31449 27850 27849 2
31450 27849 27854 1
31451 27850 27851 1
31452 27852 27851 1
31453 27851 27990 1
31454 27851 27991 1
31455 27853 27852 1
31456 27852 27927 1
31457 27852 27992 1
31458 27854 27853 1
31459 27853 27993 1
31460 27853 27994 1
31461 27854 27995 1
31462 27854 27996 1
31463 27856 27855 1
31464 27855 27859 1
31465 27856 27997 1
31466 27858 27857 1
31467 27857 27863 1
31468 27859 27858 1
31469 27858 27860 1
31470 27861 27860 1
31471 27860 27998 1
31472 27862 27861 1
31473 27861 27867 1
31474 27863 27862 1
31475 27862 27864 1
31476 27863 27872 1
31477 27865 27864 1
31478 27864 27874 1
31479 27866 27865 1
31480 27865 27871 1
31481 27867 27866 1
31482 27866 27868 1
31483 27867 27999 1
31484 27869 27868 1
31485 27868 27884 1
31486 27870 27869 1
31487 27869 27881 1
31488 27871 27870 1
31489 27870 27878 1
31490 27871 27876 1
31491 27873 27872 1
31492 27872 27875 1
31493 27873 28000 1
31494 27875 27874 1
31495 27874 27877 1
31496 27875 27893 1
31497 27877 27876 1
31498 27876 27880 1
31499 27877 27895 1
31500 27879 27878 1
31501 27878 27911 1
31502 27880 27879 1
31503 27879 27906 1
31504 27880 27904 1
31505 27882 27881 1
31506 27883 27882 1
31507 27882 27888 1
31508 27882 28001 1
31509 27884 27883 1
31510 27883 27885 1
31511 27883 28002 1
31512 27884 27930 1
31513 27884 28003 1
31514 27886 27885 1
31515 27885 28004 1
31516 27885 28005 1
31517 27887 27886 1
31518 27886 28006 1
31519 27886 28007 1
31520 27888 27887 1
31521 27887 27892 1
31522 27887 28008 1
31523 27888 27889 1
31524 27888 28009 1
31525 27890 27889 1
31526 27889 28010 1
31527 27889 28011 1
31528 27891 27890 1
31529 27890 28012 1
31530 27890 28013 1
31531 27892 27891 1
31532 27891 28014 1
31533 27891 28015 1
31534 27892 28016 1
31535 27894 27893 1
31536 27893 27899 1
31537 27895 27894 1
31538 27894 27896 1
31539 27895 27905 1
31540 27897 27896 1
31541 27898 27897 1
31542 27897 27903 1
31543 27897 28017 1
31544 27899 27898 1
31545 27898 27900 1
31546 27898 28018 1
31547 27901 27900 1
31548 27900 28019 1
31549 27900 28020 1
31550 27902 27901 1
31551 27901 28021 1
31552 27901 28022 1
31553 27903 27902 1
31554 27902 28023 1
31555 27902 28024 1
31556 27903 28025 1
31557 27903 28026 1
31558 27905 27904 1
31559 27904 27908 1
31560 27905 28027 1
31561 27907 27906 1
31562 27906 27909 1
31563 27908 27907 1
31564 27907 27912 1
31565 27908 28028 1
31566 27910 27909 1
31567 27909 27914 1
31568 27911 27910 1
31569 27910 27915 1
31570 27911 28029 1
31571 27913 27912 1
31572 27914 27913 1
31573 27913 27924 1
31574 27914 27917 1
31575 27916 27915 1
31576 27915 27921 1
31577 27915 28030 1
31578 27917 27916 1
31579 27916 27918 1
31580 27916 28031 1
31581 27917 27922 1
31582 27919 27918 1
31583 27918 27925 1
31584 27918 28032 1
31585 27920 27919 1
31586 27919 28033 1
31587 27919 28034 1
31588 27921 27920 1
31589 27920 28035 1
31590 27920 28036 1
31591 27921 28037 1
31592 27921 28038 1
31593 27923 27922 1
31594 27922 27926 1
31595 27924 27923 1
31596 27923 27934 1
31597 27924 27931 1
31598 27925 27926 1
31599 27925 27949 1
31600 27926 27945 1
31601 27927 27928 1
31602 27927 27929 1
31603 27927 28039 1
31604 27928 28040 1
31605 27928 28041 1
31606 27928 28042 1
31607 27929 28043 1
31608 27929 28044 1
31609 27929 28045 1
31610 27930 28046 1
31611 27932 27931 1
31612 27931 28047 1
31613 27933 27932 1
31614 27932 28048 1
31615 27934 27933 1
31616 27933 27938 1
31617 27934 27935 1
31618 27936 27935 1
31619 27935 27945 1
31620 27937 27936 1
31621 27936 27942 1
31622 27938 27937 1
31623 27937 27939 1
31624 27938 28049 1
31625 27940 27939 1
31626 27939 28050 1
31627 27941 27940 1
31628 27940 28051 1
31629 27942 27941 1
31630 27941 27948 1
31631 27942 27943 1
31632 27944 27943 1
31633 27943 27946 1
31634 27945 27944 1
31635 27944 27950 1
31636 27947 27946 1
31637 27946 27951 1
31638 27948 27947 1
31639 27947 28052 1
31640 27948 28053 1
31641 27950 27949 1
31642 27949 28054 1
31643 27950 27952 1
31644 27952 27951 1
31645 27951 27956 1
31646 27952 27953 1
31647 27954 27953 1
31648 27953 28055 1
31649 27953 28056 1
31650 27955 27954 1
31651 27954 28057 1
31652 27954 28058 1
31653 27956 27955 1
31654 27955 28059 1
31655 27955 28060 1
31656 27956 27957 2
31657 28061 28062 1
31658 28061 28066 1
31659 28061 28208 1
31660 28061 28209 1
31661 28063 28062 1
31662 28062 28210 1
31663 28062 28211 1
31664 28064 28063 1
31665 28063 28070 1
31666 28063 28212 1
31667 28065 28064 1
31668 28064 28067 1
31669 28064 28213 1
31670 28066 28065 1
31671 28065 28214 1
31672 28065 28215 1
31673 28068 28067 1
31674 28067 28074 1
31675 28067 28216 1
31676 28069 28068 1
31677 28068 28071 1
31678 28068 28217 1
31679 28070 28069 1
31680 28069 28218 1
31681 28069 28219 1
31682 28070 28220 1
31683 28070 28221 1
31684 28072 28071 1
31685 28073 28072 1
31686 28072 28078 1
31687 28072 28222 1
31688 28074 28073 1
31689 28073 28075 1
31690 28073 28223 1
31691 28074 28224 1
31692 28074 28225 1
31693 28076 28075 1
31694 28075 28085 2
31695 28077 28076 1
31696 28076 28082 1
31697 28078 28077 1
31698 28077 28079 1
31699 28078 28090 1
31700 28078 28226 1
31701 28080 28079 1
31702 28079 28092 1
31703 28081 28080 1
31704 28080 28089 1
31705 28082 28081 1
31706 28081 28086 1
31707 28082 28083 1
31708 28084 28083 1
31709 28083 28227 1
31710 28083 28228 1
31711 28085 28084 1
31712 28084 28229 1
31713 28084 28230 1
31714 28085 28231 1
31715 28087 28086 1
31716 28088 28087 1
31717 28087 28123 1
31718 28089 28088 1
31719 28088 28107 1
31720 28089 28105 1
31721 28091 28090 1
31722 28090 28096 2
31723 28092 28091 1
31724 28091 28093 1
31725 28091 28232 1
31726 28092 28106 1
31727 28094 28093 2
31728 28093 28100 1
31729 28095 28094 1
31730 28094 28097 1
31731 28096 28095 1
31732 28095 28233 1
31733 28095 28234 1
31734 28096 28235 1
31735 28098 28097 1
31736 28097 28236 1
31737 28097 28237 1
31738 28099 28098 1
31739 28098 28238 1
31740 28098 28239 1
31741 28100 28099 2
31742 28099 28104 1
31743 28100 28101 1
31744 28102 28101 1
31745 28101 28240 1
31746 28101 28241 1
31747 28103 28102 1
31748 28102 28177 1
31749 28102 28242 1
31750 28104 28103 1
31751 28103 28243 1
31752 28103 28244 1
31753 28104 28245 1
31754 28104 28246 1
31755 28106 28105 1
31756 28105 28109 1
31757 28106 28247 1
31758 28108 28107 1
31759 28107 28113 1
31760 28109 28108 1
31761 28108 28110 1
31762 28111 28110 1
31763 28110 28248 1
31764 28112 28111 1
31765 28111 28117 1
31766 28113 28112 1
31767 28112 28114 1
31768 28113 28122 1
31769 28115 28114 1
31770 28114 28124 1
31771 28116 28115 1
31772 28115 28121 1
31773 28117 28116 1
31774 28116 28118 1
31775 28117 28249 1
31776 28119 28118 1
31777 28118 28134 1
31778 28120 28119 1
31779 28119 28131 1
31780 28121 28120 1
31781 28120 28128 1
31782 28121 28126 1
31783 28123 28122 1
31784 28122 28125 1
31785 28123 28250 1
31786 28125 28124 1
31787 28124 28127 1
31788 28125 28143 1
31789 28127 28126 1
31790 28126 28130 1
31791 28127 28145 1
31792 28129 28128 1
31793 28128 28161 1
31794 28130 28129 1
31795 28129 28156 1
31796 28130 28154 1
31797 28132 28131 1
31798 28133 28132 1
31799 28132 28138 1
31800 28132 28251 1
31801 28134 28133 1
31802 28133 28135 1
31803 28133 28252 1
31804 28134 28180 1
31805 28134 28253 1
31806 28136 28135 1
31807 28135 28254 1
31808 28135 28255 1
31809 28137 28136 1
31810 28136 28256 1
31811 28136 28257 1
31812 28138 28137 1
31813 28137 28142 1
31814 28137 28258 1
31815 28138 28139 1
31816 28138 28259 1
31817 28140 28139 1
31818 28139 28260 1
31819 28139 28261 1
31820 28141 28140 1
31821 28140 28262 1
31822 28140 28263 1
31823 28142 28141 1
31824 28141 28264 1
31825 28141 28265 1
31826 28142 28266 1
31827 28144 28143 1
31828 28143 28149 1
31829 28145 28144 1
31830 28144 28146 1
31831 28145 28155 1
31832 28147 28146 1
31833 28148 28147 1
31834 28147 28153 1
31835 28147 28267 1
31836 28149 28148 1
31837 28148 28150 1
31838 28148 28268 1
31839 28151 28150 1
31840 28150 28269 1
31841 28150 28270 1
31842 28152 28151 1
31843 28151 28271 1
31844 28151 28272 1
31845 28153 28152 1
31846 28152 28273 1
31847 28152 28274 1
31848 28153 28275 1
31849 28153 28276 1
31850 28155 28154 1
31851 28154 28158 1
31852 28155 28277 1
31853 28157 28156 1
31854 28156 28159 1
31855 28158 28157 1
31856 28157 28162 1
31857 28158 28278 1
31858 28160 28159 1
31859 28159 28164 1
31860 28161 28160 1
31861 28160 28165 1
31862 28161 28279 1
31863 28163 28162 1
31864 28164 28163 1
31865 28163 28174 1
31866 28164 28167 1
31867 28166 28165 1
31868 28165 28171 1
31869 28165 28280 1
31870 28167 28166 1
31871 28166 28168 1
31872 28166 28281 1
31873 28167 28172 1
31874 28169 28168 1
31875 28168 28175 1
31876 28168 28282 1
31877 28170 28169 1
31878 28169 28283 1
31879 28169 28284 1
31880 28171 28170 1
31881 28170 28285 1
31882 28170 28286 1
31883 28171 28287 1
31884 28171 28288 1
31885 28173 28172 1
31886 28172 28176 1
31887 28174 28173 1
31888 28173 28184 1
31889 28174 28181 1
31890 28175 28176 1
31891 28175 28199 1
31892 28176 28195 1
31893 28177 28178 1
31894 28177 28179 1
31895 28177 28289 1
31896 28178 28290 1
31897 28178 28291 1
31898 28178 28292 1
31899 28179 28293 1
31900 28179 28294 1
31901 28179 28295 1
31902 28180 28296 1
31903 28182 28181 1
31904 28181 28297 1
31905 28183 28182 1
31906 28182 28298 1
31907 28184 28183 1
31908 28183 28188 1
31909 28184 28185 1
31910 28186 28185 1
31911 28185 28195 1
31912 28187 28186 1
31913 28186 28192 1
31914 28188 28187 1
31915 28187 28189 1
31916 28188 28299 1
31917 28190 28189 1
31918 28189 28300 1
31919 28191 28190 1
31920 28190 28301 1
31921 28192 28191 1
31922 28191 28198 1
31923 28192 28193 1
31924 28194 28193 1
31925 28193 28196 1
31926 28195 28194 1
31927 28194 28200 1
31928 28197 28196 1
31929 28196 28201 1
31930 28198 28197 1
31931 28197 28302 1
31932 28198 28303 1
31933 28200 28199 1
31934 28199 28304 1
31935 28200 28202 1
31936 28202 28201 1
31937 28201 28206 1
31938 28202 28203 1
31939 28204 28203 1
31940 28203 28305 1
31941 28203 28306 1
31942 28205 28204 1
31943 28204 28307 1
31944 28204 28308 1
31945 28206 28205 1
31946 28205 28309 1
31947 28205 28310 1
31948 28206 28207 2
31949 28311 28312 1
31950 28311 28316 1
31951 28311 28458 1
31952 28311 28459 1
31953 28313 28312 1
31954 28312 28460 1
31955 28312 28461 1
31956 28314 28313 1
31957 28313 28320 1
31958 28313 28462 1
31959 28315 28314 1
31960 28314 28317 1
31961 28314 28463 1
31962 28316 28315 1
31963 28315 28464 1
31964 28315 28465 1
31965 28318 28317 1
31966 28317 28324 1
31967 28317 28466 1
31968 28319 28318 1
31969 28318 28321 1
31970 28318 28467 1
31971 28320 28319 1
31972 28319 28468 1
31973 28319 28469 1
31974 28320 28470 1
31975 28320 28471 1
31976 28322 28321 1
31977 28323 28322 1
31978 28322 28328 1
31979 28322 28472 1
31980 28324 28323 1
31981 28323 28325 1
31982 28323 28473 1
31983 28324 28474 1
31984 28324 28475 1
31985 28326 28325 1
31986 28325 28335 2
31987 28327 28326 1
31988 28326 28332 1
31989 28328 28327 1
31990 28327 28329 1
31991 28328 28340 1
31992 28328 28476 1
31993 28330 28329 1
31994 28329 28342 1
31995 28331 28330 1
31996 28330 28339 1
31997 28332 28331 1
31998 28331 28336 1
31999 28332 28333 1
32000 28334 28333 1
32001 28333 28477 1
32002 28333 28478 1
32003 28335 28334 1
32004 28334 28479 1
32005 28334 28480 1
32006 28335 28481 1
32007 28337 28336 1
32008 28338 28337 1
32009 28337 28373 1
32010 28339 28338 1
32011 28338 28357 1
32012 28339 28355 1
32013 28341 28340 1
32014 28340 28346 2
32015 28342 28341 1
32016 28341 28343 1
32017 28341 28482 1
32018 28342 28356 1
32019 28344 28343 2
32020 28343 28350 1
32021 28345 28344 1
32022 28344 28347 1
32023 28346 28345 1
32024 28345 28483 1
32025 28345 28484 1
32026 28346 28485 1
32027 28348 28347 1
32028 28347 28486 1
32029 28347 28487 1
32030 28349 28348 1
32031 28348 28488 1
32032 28348 28489 1
32033 28350 28349 2
32034 28349 28354 1
32035 28350 28351 1
32036 28352 28351 1
32037 28351 28490 1
32038 28351 28491 1
32039 28353 28352 1
32040 28352 28427 1
32041 28352 28492 1
32042 28354 28353 1
32043 28353 28493 1
32044 28353 28494 1
32045 28354 28495 1
32046 28354 28496 1
32047 28356 28355 1
32048 28355 28359 1
32049 28356 28497 1
32050 28358 28357 1
32051 28357 28363 1
32052 28359 28358 1
32053 28358 28360 1
32054 28361 28360 1
32055 28360 28498 1
32056 28362 28361 1
32057 28361 28367 1
32058 28363 28362 1
32059 28362 28364 1
32060 28363 28372 1
32061 28365 28364 1
32062 28364 28374 1
32063 28366 28365 1
32064 28365 28371 1
32065 28367 28366 1
32066 28366 28368 1
32067 28367 28499 1
32068 28369 28368 1
32069 28368 28384 1
32070 28370 28369 1
32071 28369 28381 1
32072 28371 28370 1
32073 28370 28378 1
32074 28371 28376 1
32075 28373 28372 1
32076 28372 28375 1
32077 28373 28500 1
32078 28375 28374 1
32079 28374 28377 1
32080 28375 28393 1
32081 28377 28376 1
32082 28376 28380 1
32083 28377 28395 1
32084 28379 28378 1
32085 28378 28411 1
32086 28380 28379 1
32087 28379 28406 1
32088 28380 28404 1
32089 28382 28381 1
32090 28383 28382 1
32091 28382 28388 1
32092 28382 28501 1
32093 28384 28383 1
32094 28383 28385 1
32095 28383 28502 1
32096 28384 28430 1
32097 28384 28503 1
32098 28386 28385 1
32099 28385 28504 1
32100 28385 28505 1
32101 28387 28386 1
32102 28386 28506 1
32103 28386 28507 1
32104 28388 28387 1
32105 28387 28392 1
32106 28387 28508 1
32107 28388 28389 1
32108 28388 28509 1
32109 28390 28389 1
32110 28389 28510 1
32111 28389 28511 1
32112 28391 28390 1
32113 28390 28512 1
32114 28390 28513 1
32115 28392 28391 1
32116 28391 28514 1
32117 28391 28515 1
32118 28392 28516 1
32119 28394 28393 1
32120 28393 28399 1
32121 28395 28394 1
32122 28394 28396 1
32123 28395 28405 1
32124 28397 28396 1
32125 28398 28397 1
32126 28397 28403 1
32127 28397 28517 1
32128 28399 28398 1
32129 28398 28400 1
32130 28398 28518 1
32131 28401 28400 1
32132 28400 28519 1
32133 28400 28520 1
32134 28402 28401 1
32135 28401 28521 1
32136 28401 28522 1
32137 28403 28402 1
32138 28402 28523 1
32139 28402 28524 1
32140 28403 28525 1
32141 28403 28526 1
32142 28405 28404 1
32143 28404 28408 1
32144 28405 28527 1
32145 28407 28406 1
32146 28406 28409 1
32147 28408 28407 1
32148 28407 28412 1
32149 28408 28528 1
32150 28410 28409 1
32151 28409 28414 1
32152 28411 28410 1
32153 28410 28415 1
32154 28411 28529 1
32155 28413 28412 1
32156 28414 28413 1
32157 28413 28424 1
32158 28414 28417 1
32159 28416 28415 1
32160 28415 28421 1
32161 28415 28530 1
32162 28417 28416 1
32163 28416 28418 1
32164 28416 28531 1
32165 28417 28422 1
32166 28419 28418 1
32167 28418 28425 1
32168 28418 28532 1
32169 28420 28419 1
32170 28419 28533 1
32171 28419 28534 1
32172 28421 28420 1
32173 28420 28535 1
32174 28420 28536 1
32175 28421 28537 1
32176 28421 28538 1
32177 28423 28422 1
32178 28422 28426 1
32179 28424 28423 1
32180 28423 28434 1
32181 28424 28431 1
32182 28425 28426 1
32183 28425 28449 1
32184 28426 28445 1
32185 28427 28428 1
32186 28427 28429 1
32187 28427 28539 1
32188 28428 28540 1
32189 28428 28541 1
32190 28428 28542 1
32191 28429 28543 1
32192 28429 28544 1
32193 28429 28545 1
32194 28430 28546 1
32195 28432 28431 1
32196 28431 28547 1
32197 28433 28432 1
32198 28432 28548 1
32199 28434 28433 1
32200 28433 28438 1
32201 28434 28435 1
32202 28436 28435 1
32203 28435 28445 1
32204 28437 28436 1
32205 28436 28442 1
32206 28438 28437 1
32207 28437 28439 1
32208 28438 28549 1
32209 28440 28439 1
32210 28439 28550 1
32211 28441 28440 1
32212 28440 28551 1
32213 28442 28441 1
32214 28441 28448 1
32215 28442 28443 1
32216 28444 28443 1
32217 28443 28446 1
32218 28445 28444 1
32219 28444 28450 1
32220 28447 28446 1
32221 28446 28451 1
32222 28448 28447 1
32223 28447 28552 1
32224 28448 28553 1
32225 28450 28449 1
32226 28449 28554 1
32227 28450 28452 1
32228 28452 28451 1
32229 28451 28456 1
32230 28452 28453 1
32231 28454 28453 1
32232 28453 28555 1
32233 28453 28556 1
32234 28455 28454 1
32235 28454 28557 1
32236 28454 28558 1
32237 28456 28455 1
32238 28455 28559 1
32239 28455 28560 1
32240 28456 28457 2
32241 28561 28562 un
32242 28561 28566 un
32243 28561 28616 1
32244 28563 28562 un
32245 28562 28618 1
32246 28564 28563 un
32247 28563 28570 1
32248 28565 28564 un
32249 28564 28567 1
32250 28566 28565 un
32251 28565 28617 1
32252 28566 28614 1
32253 28568 28567 1
32254 28567 28630 1
32255 28567 28631 1
32256 28569 28568 un
32257 28568 28574 un
32258 28570 28569 1
32259 28569 28571 un
32260 28570 28632 1
32261 28570 28633 1
32262 28572 28571 un
32263 28571 28619 1
32264 28573 28572 un
32265 28572 28620 1
32266 28574 28573 un
32267 28573 28578 un
32268 28574 28575 un
32269 28576 28575 un
32270 28575 28634 1
32271 28577 28576 un
32272 28576 28582 un
32273 28578 28577 un
32274 28577 28579 1
32275 28578 28621 1
32276 28580 28579 1
32277 28579 28586 1
32278 28581 28580 1
32279 28580 28583 1
32280 28582 28581 un
32281 28581 28590 un
32282 28582 28587 un
32283 28584 28583 1
32284 28583 28635 1
32285 28583 28636 1
32286 28585 28584 un
32287 28584 28623 1
32288 28584 28637 1
32289 28586 28585 1
32290 28585 28622 1
32291 28585 28638 1
32292 28586 28639 1
32293 28586 28640 1
32294 28588 28587 un
32295 28587 28625 1
32296 28589 28588 un
32297 28588 28594 1
32298 28590 28589 un
32299 28589 28591 1
32300 28590 28624 1
32301 28592 28591 1
32302 28591 28627 2
32303 28593 28592 un
32304 28592 28598 un
32305 28594 28593 1
32306 28593 28595 1
32307 28594 28626 2
32308 28596 28595 1
32309 28595 28641 1
32310 28595 28642 1
32311 28597 28596 1
32312 28596 28643 1
32313 28596 28644 1
32314 28598 28597 un
32315 28597 28602 un
32316 28598 28599 un
32317 28600 28599 un
32318 28601 28600 un
32319 28600 28609 un
32320 28602 28601 un
32321 28601 28606 1
32322 28602 28603 1
32323 28604 28603 1
32324 28603 28645 1
32325 28603 28646 1
32326 28605 28604 1
32327 28604 28647 1
32328 28604 28648 1
32329 28606 28605 1
32330 28605 28649 1
32331 28605 28650 1
32332 28606 28607 1
32333 28606 28651 1
32334 28608 28607 1
32335 28607 28652 1
32336 28607 28653 1
32337 28609 28608 un
32338 28608 28613 un
32339 28609 28610 un
32340 28611 28610 un
32341 28610 28654 1
32342 28612 28611 un
32343 28611 28655 1
32344 28613 28612 un
32345 28612 28629 1
32346 28613 28628 1
32347 28614 28615 1
32348 28614 28656 1
32349 28614 28657 1
32350 28615 28658 1
32351 28615 28659 1
32352 28615 28660 1
32353 28616 28661 1
32354 28616 28662 1
32355 28616 28663 1
32356 28617 28664 1
32357 28617 28665 1
32358 28617 28666 1
32359 28618 28667 1
32360 28618 28668 1
32361 28618 28669 1
32362 28619 28670 1
32363 28619 28671 1
32364 28619 28672 1
32365 28620 28673 1
32366 28620 28674 1
32367 28620 28675 1
32368 28621 28676 1
32369 28622 28677 1
32370 28622 28678 1
32371 28622 28679 1
32372 28623 28680 1
32373 28623 28681 1
32374 28623 28682 1
32375 28624 28683 1
32376 28625 28684 1
32377 28628 28685 1
32378 28628 28686 1
32379 28628 28687 1
32380 28629 28688 1
32381 28629 28689 1
32382 28629 28690 1
32383 28691 28692 un
32384 28691 28696 un
32385 28691 28746 1
32386 28693 28692 un
32387 28692 28748 1
32388 28694 28693 un
32389 28693 28700 1
32390 28695 28694 un
32391 28694 28697 1
32392 28696 28695 un
32393 28695 28747 1
32394 28696 28744 1
32395 28698 28697 1
32396 28697 28760 1
32397 28697 28761 1
32398 28699 28698 un
32399 28698 28704 un
32400 28700 28699 1
32401 28699 28701 un
32402 28700 28762 1
32403 28700 28763 1
32404 28702 28701 un
32405 28701 28749 1
32406 28703 28702 un
32407 28702 28750 1
32408 28704 28703 un
32409 28703 28708 un
32410 28704 28705 un
32411 28706 28705 un
32412 28705 28764 1
32413 28707 28706 un
32414 28706 28712 un
32415 28708 28707 un
32416 28707 28709 1
32417 28708 28751 1
32418 28710 28709 1
32419 28709 28716 1
32420 28711 28710 1
32421 28710 28713 1
32422 28712 28711 un
32423 28711 28720 un
32424 28712 28717 un
32425 28714 28713 1
32426 28713 28765 1
32427 28713 28766 1
32428 28715 28714 un
32429 28714 28753 1
32430 28714 28767 1
32431 28716 28715 1
32432 28715 28752 1
32433 28715 28768 1
32434 28716 28769 1
32435 28716 28770 1
32436 28718 28717 un
32437 28717 28755 1
32438 28719 28718 un
32439 28718 28724 1
32440 28720 28719 un
32441 28719 28721 1
32442 28720 28754 1
32443 28722 28721 1
32444 28721 28757 2
32445 28723 28722 un
32446 28722 28728 un
32447 28724 28723 1
32448 28723 28725 1
32449 28724 28756 2
32450 28726 28725 1
32451 28725 28771 1
32452 28725 28772 1
32453 28727 28726 1
32454 28726 28773 1
32455 28726 28774 1
32456 28728 28727 un
32457 28727 28732 un
32458 28728 28729 un
32459 28730 28729 un
32460 28731 28730 un
32461 28730 28739 un
32462 28732 28731 un
32463 28731 28736 1
32464 28732 28733 1
32465 28734 28733 1
32466 28733 28775 1
32467 28733 28776 1
32468 28735 28734 1
32469 28734 28777 1
32470 28734 28778 1
32471 28736 28735 1
32472 28735 28779 1
32473 28735 28780 1
32474 28736 28737 1
32475 28736 28781 1
32476 28738 28737 1
32477 28737 28782 1
32478 28737 28783 1
32479 28739 28738 un
32480 28738 28743 un
32481 28739 28740 un
32482 28741 28740 un
32483 28740 28784 1
32484 28742 28741 un
32485 28741 28785 1
32486 28743 28742 un
32487 28742 28759 1
32488 28743 28758 1
32489 28744 28745 1
32490 28744 28786 1
32491 28744 28787 1
32492 28745 28788 1
32493 28745 28789 1
32494 28745 28790 1
32495 28746 28791 1
32496 28746 28792 1
32497 28746 28793 1
32498 28747 28794 1
32499 28747 28795 1
32500 28747 28796 1
32501 28748 28797 1
32502 28748 28798 1
32503 28748 28799 1
32504 28749 28800 1
32505 28749 28801 1
32506 28749 28802 1
32507 28750 28803 1
32508 28750 28804 1
32509 28750 28805 1
32510 28751 28806 1
32511 28752 28807 1
32512 28752 28808 1
32513 28752 28809 1
32514 28753 28810 1
32515 28753 28811 1
32516 28753 28812 1
32517 28754 28813 1
32518 28755 28814 1
32519 28758 28815 1
32520 28758 28816 1
32521 28758 28817 1
32522 28759 28818 1
32523 28759 28819 1
32524 28759 28820 1
32525 28821 28822 un
32526 28821 28826 un
32527 28821 28876 1
32528 28823 28822 un
32529 28822 28878 1
32530 28824 28823 un
32531 28823 28830 1
32532 28825 28824 un
32533 28824 28827 1
32534 28826 28825 un
32535 28825 28877 1
32536 28826 28874 1
32537 28828 28827 1
32538 28827 28890 1
32539 28827 28891 1
32540 28829 28828 un
32541 28828 28834 un
32542 28830 28829 1
32543 28829 28831 un
32544 28830 28892 1
32545 28830 28893 1
32546 28832 28831 un
32547 28831 28879 1
32548 28833 28832 un
32549 28832 28880 1
32550 28834 28833 un
32551 28833 28838 un
32552 28834 28835 un
32553 28836 28835 un
32554 28835 28894 1
32555 28837 28836 un
32556 28836 28842 un
32557 28838 28837 un
32558 28837 28839 1
32559 28838 28881 1
32560 28840 28839 1
32561 28839 28846 1
32562 28841 28840 1
32563 28840 28843 1
32564 28842 28841 un
32565 28841 28850 un
32566 28842 28847 un
32567 28844 28843 1
32568 28843 28895 1
32569 28843 28896 1
32570 28845 28844 un
32571 28844 28883 1
32572 28844 28897 1
32573 28846 28845 1
32574 28845 28882 1
32575 28845 28898 1
32576 28846 28899 1
32577 28846 28900 1
32578 28848 28847 un
32579 28847 28885 1
32580 28849 28848 un
32581 28848 28854 1
32582 28850 28849 un
32583 28849 28851 1
32584 28850 28884 1
32585 28852 28851 1
32586 28851 28887 2
32587 28853 28852 un
32588 28852 28858 un
32589 28854 28853 1
32590 28853 28855 1
32591 28854 28886 2
32592 28856 28855 1
32593 28855 28901 1
32594 28855 28902 1
32595 28857 28856 1
32596 28856 28903 1
32597 28856 28904 1
32598 28858 28857 un
32599 28857 28862 un
32600 28858 28859 un
32601 28860 28859 un
32602 28861 28860 un
32603 28860 28869 un
32604 28862 28861 un
32605 28861 28866 1
32606 28862 28863 1
32607 28864 28863 1
32608 28863 28905 1
32609 28863 28906 1
32610 28865 28864 1
32611 28864 28907 1
32612 28864 28908 1
32613 28866 28865 1
32614 28865 28909 1
32615 28865 28910 1
32616 28866 28867 1
32617 28866 28911 1
32618 28868 28867 1
32619 28867 28912 1
32620 28867 28913 1
32621 28869 28868 un
32622 28868 28873 un
32623 28869 28870 un
32624 28871 28870 un
32625 28870 28914 1
32626 28872 28871 un
32627 28871 28915 1
32628 28873 28872 un
32629 28872 28889 1
32630 28873 28888 1
32631 28874 28875 1
32632 28874 28916 1
32633 28874 28917 1
32634 28875 28918 1
32635 28875 28919 1
32636 28875 28920 1
32637 28876 28921 1
32638 28876 28922 1
32639 28876 28923 1
32640 28877 28924 1
32641 28877 28925 1
32642 28877 28926 1
32643 28878 28927 1
32644 28878 28928 1
32645 28878 28929 1
32646 28879 28930 1
32647 28879 28931 1
32648 28879 28932 1
32649 28880 28933 1
32650 28880 28934 1
32651 28880 28935 1
32652 28881 28936 1
32653 28882 28937 1
32654 28882 28938 1
32655 28882 28939 1
32656 28883 28940 1
32657 28883 28941 1
32658 28883 28942 1
32659 28884 28943 1
32660 28885 28944 1
32661 28888 28945 1
32662 28888 28946 1
32663 28888 28947 1
32664 28889 28948 1
32665 28889 28949 1
32666 28889 28950 1
32667 28951 28952 un
32668 28951 28956 un
32669 28951 29006 1
32670 28953 28952 un
32671 28952 29008 1
32672 28954 28953 un
32673 28953 28960 1
32674 28955 28954 un
32675 28954 28957 1
32676 28956 28955 un
32677 28955 29007 1
32678 28956 29004 1
32679 28958 28957 1
32680 28957 29020 1
32681 28957 29021 1
32682 28959 28958 un
32683 28958 28964 un
32684 28960 28959 1
32685 28959 28961 un
32686 28960 29022 1
32687 28960 29023 1
32688 28962 28961 un
32689 28961 29009 1
32690 28963 28962 un
32691 28962 29010 1
32692 28964 28963 un
32693 28963 28968 un
32694 28964 28965 un
32695 28966 28965 un
32696 28965 29024 1
32697 28967 28966 un
32698 28966 28972 un
32699 28968 28967 un
32700 28967 28969 1
32701 28968 29011 1
32702 28970 28969 1
32703 28969 28976 1
32704 28971 28970 1
32705 28970 28973 1
32706 28972 28971 un
32707 28971 28980 un
32708 28972 28977 un
32709 28974 28973 1
32710 28973 29025 1
32711 28973 29026 1
32712 28975 28974 un
32713 28974 29013 1
32714 28974 29027 1
32715 28976 28975 1
32716 28975 29012 1
32717 28975 29028 1
32718 28976 29029 1
32719 28976 29030 1
32720 28978 28977 un
32721 28977 29015 1
32722 28979 28978 un
32723 28978 28984 1
32724 28980 28979 un
32725 28979 28981 1
32726 28980 29014 1
32727 28982 28981 1
32728 28981 29017 2
32729 28983 28982 un
32730 28982 28988 un
32731 28984 28983 1
32732 28983 28985 1
32733 28984 29016 2
32734 28986 28985 1
32735 28985 29031 1
32736 28985 29032 1
32737 28987 28986 1
32738 28986 29033 1
32739 28986 29034 1
32740 28988 28987 un
32741 28987 28992 un
32742 28988 28989 un
32743 28990 28989 un
32744 28991 28990 un
32745 28990 28999 un
32746 28992 28991 un
32747 28991 28996 1
32748 28992 28993 1
32749 28994 28993 1
32750 28993 29035 1
32751 28993 29036 1
32752 28995 28994 1
32753 28994 29037 1
32754 28994 29038 1
32755 28996 28995 1
32756 28995 29039 1
32757 28995 29040 1
32758 28996 28997 1
32759 28996 29041 1
32760 28998 28997 1
32761 28997 29042 1
32762 28997 29043 1
32763 28999 28998 un
32764 28998 29003 un
32765 28999 29000 un
32766 29001 29000 un
32767 29000 29044 1
32768 29002 29001 un
32769 29001 29045 1
32770 29003 29002 un
32771 29002 29019 1
32772 29003 29018 1
32773 29004 29005 1
32774 29004 29046 1
32775 29004 29047 1
32776 29005 29048 1
32777 29005 29049 1
32778 29005 29050 1
32779 29006 29051 1
32780 29006 29052 1
32781 29006 29053 1
32782 29007 29054 1
32783 29007 29055 1
32784 29007 29056 1
32785 29008 29057 1
32786 29008 29058 1
32787 29008 29059 1
32788 29009 29060 1
32789 29009 29061 1
32790 29009 29062 1
32791 29010 29063 1
32792 29010 29064 1
32793 29010 29065 1
32794 29011 29066 1
32795 29012 29067 1
32796 29012 29068 1
32797 29012 29069 1
32798 29013 29070 1
32799 29013 29071 1
32800 29013 29072 1
32801 29014 29073 1
32802 29015 29074 1
32803 29018 29075 1
32804 29018 29076 1
32805 29018 29077 1
32806 29019 29078 1
32807 29019 29079 1
32808 29019 29080 1
32809 29081 29082 un
32810 29081 29086 un
32811 29081 29136 1
32812 29083 29082 un
32813 29082 29138 1
32814 29084 29083 un
32815 29083 29090 1
32816 29085 29084 un
32817 29084 29087 1
32818 29086 29085 un
32819 29085 29137 1
32820 29086 29134 1
32821 29088 29087 1
32822 29087 29150 1
32823 29087 29151 1
32824 29089 29088 un
32825 29088 29094 un
32826 29090 29089 1
32827 29089 29091 un
32828 29090 29152 1
32829 29090 29153 1
32830 29092 29091 un
32831 29091 29139 1
32832 29093 29092 un
32833 29092 29140 1
32834 29094 29093 un
32835 29093 29098 un
32836 29094 29095 un
32837 29096 29095 un
32838 29095 29154 1
32839 29097 29096 un
32840 29096 29102 un
32841 29098 29097 un
32842 29097 29099 1
32843 29098 29141 1
32844 29100 29099 1
32845 29099 29106 1
32846 29101 29100 1
32847 29100 29103 1
32848 29102 29101 un
32849 29101 29110 un
32850 29102 29107 un
32851 29104 29103 1
32852 29103 29155 1
32853 29103 29156 1
32854 29105 29104 un
32855 29104 29143 1
32856 29104 29157 1
32857 29106 29105 1
32858 29105 29142 1
32859 29105 29158 1
32860 29106 29159 1
32861 29106 29160 1
32862 29108 29107 un
32863 29107 29145 1
32864 29109 29108 un
32865 29108 29114 1
32866 29110 29109 un
32867 29109 29111 1
32868 29110 29144 1
32869 29112 29111 1
32870 29111 29147 2
32871 29113 29112 un
32872 29112 29118 un
32873 29114 29113 1
32874 29113 29115 1
32875 29114 29146 2
32876 29116 29115 1
32877 29115 29161 1
32878 29115 29162 1
32879 29117 29116 1
32880 29116 29163 1
32881 29116 29164 1
32882 29118 29117 un
32883 29117 29122 un
32884 29118 29119 un
32885 29120 29119 un
32886 29121 29120 un
32887 29120 29129 un
32888 29122 29121 un
32889 29121 29126 1
32890 29122 29123 1
32891 29124 29123 1
32892 29123 29165 1
32893 29123 29166 1
32894 29125 29124 1
32895 29124 29167 1
32896 29124 29168 1
32897 29126 29125 1
32898 29125 29169 1
32899 29125 29170 1
32900 29126 29127 1
32901 29126 29171 1
32902 29128 29127 1
32903 29127 29172 1
32904 29127 29173 1
32905 29129 29128 un
32906 29128 29133 un
32907 29129 29130 un
32908 29131 29130 un
32909 29130 29174 1
32910 29132 29131 un
32911 29131 29175 1
32912 29133 29132 un
32913 29132 29149 1
32914 29133 29148 1
32915 29134 29135 1
32916 29134 29176 1
32917 29134 29177 1
32918 29135 29178 1
32919 29135 29179 1
32920 29135 29180 1
32921 29136 29181 1
32922 29136 29182 1
32923 29136 29183 1
32924 29137 29184 1
32925 29137 29185 1
32926 29137 29186 1
32927 29138 29187 1
32928 29138 29188 1
32929 29138 29189 1
32930 29139 29190 1
32931 29139 29191 1
32932 29139 29192 1
32933 29140 29193 1
32934 29140 29194 1
32935 29140 29195 1
32936 29141 29196 1
32937 29142 29197 1
32938 29142 29198 1
32939 29142 29199 1
32940 29143 29200 1
32941 29143 29201 1
32942 29143 29202 1
32943 29144 29203 1
32944 29145 29204 1
32945 29148 29205 1
32946 29148 29206 1
32947 29148 29207 1
32948 29149 29208 1
32949 29149 29209 1
32950 29149 29210 1
32951 29211 29212 un
32952 29211 29216 un
32953 29211 29266 1
32954 29213 29212 un
32955 29212 29268 1
32956 29214 29213 un
32957 29213 29220 1
32958 29215 29214 un
32959 29214 29217 1
32960 29216 29215 un
32961 29215 29267 1
32962 29216 29264 1
32963 29218 29217 1
32964 29217 29280 1
32965 29217 29281 1
32966 29219 29218 un
32967 29218 29224 un
32968 29220 29219 1
32969 29219 29221 un
32970 29220 29282 1
32971 29220 29283 1
32972 29222 29221 un
32973 29221 29269 1
32974 29223 29222 un
32975 29222 29270 1
32976 29224 29223 un
32977 29223 29228 un
32978 29224 29225 un
32979 29226 29225 un
32980 29225 29284 1
32981 29227 29226 un
32982 29226 29232 un
32983 29228 29227 un
32984 29227 29229 1
32985 29228 29271 1
32986 29230 29229 1
32987 29229 29236 1
32988 29231 29230 1
32989 29230 29233 1
32990 29232 29231 un
32991 29231 29240 un
32992 29232 29237 un
32993 29234 29233 1
32994 29233 29285 1
32995 29233 29286 1
32996 29235 29234 un
32997 29234 29273 1
32998 29234 29287 1
32999 29236 29235 1
33000 29235 29272 1
33001 29235 29288 1
33002 29236 29289 1
33003 29236 29290 1
33004 29238 29237 un
33005 29237 29275 1
33006 29239 29238 un
33007 29238 29244 1
33008 29240 29239 un
33009 29239 29241 1
33010 29240 29274 1
33011 29242 29241 1
33012 29241 29277 2
33013 29243 29242 un
33014 29242 29248 un
33015 29244 29243 1
33016 29243 29245 1
33017 29244 29276 2
33018 29246 29245 1
33019 29245 29291 1
33020 29245 29292 1
33021 29247 29246 1
33022 29246 29293 1
33023 29246 29294 1
33024 29248 29247 un
33025 29247 29252 un
33026 29248 29249 un
33027 29250 29249 un
33028 29251 29250 un
33029 29250 29259 un
33030 29252 29251 un
33031 29251 29256 1
33032 29252 29253 1
33033 29254 29253 1
33034 29253 29295 1
33035 29253 29296 1
33036 29255 29254 1
33037 29254 29297 1
33038 29254 29298 1
33039 29256 29255 1
33040 29255 29299 1
33041 29255 29300 1
33042 29256 29257 1
33043 29256 29301 1
33044 29258 29257 1
33045 29257 29302 1
33046 29257 29303 1
33047 29259 29258 un
33048 29258 29263 un
33049 29259 29260 un
33050 29261 29260 un
33051 29260 29304 1
33052 29262 29261 un
33053 29261 29305 1
33054 29263 29262 un
33055 29262 29279 1
33056 29263 29278 1
33057 29264 29265 1
33058 29264 29306 1
33059 29264 29307 1
33060 29265 29308 1
33061 29265 29309 1
33062 29265 29310 1
33063 29266 29311 1
33064 29266 29312 1
33065 29266 29313 1
33066 29267 29314 1
33067 29267 29315 1
33068 29267 29316 1
33069 29268 29317 1
33070 29268 29318 1
33071 29268 29319 1
33072 29269 29320 1
33073 29269 29321 1
33074 29269 29322 1
33075 29270 29323 1
33076 29270 29324 1
33077 29270 29325 1
33078 29271 29326 1
33079 29272 29327 1
33080 29272 29328 1
33081 29272 29329 1
33082 29273 29330 1
33083 29273 29331 1
33084 29273 29332 1
33085 29274 29333 1
33086 29275 29334 1
33087 29278 29335 1
33088 29278 29336 1
33089 29278 29337 1
33090 29279 29338 1
33091 29279 29339 1
33092 29279 29340 1
33093 29341 29342 un
33094 29341 29346 un
33095 29341 29396 1
33096 29343 29342 un
33097 29342 29398 1
33098 29344 29343 un
33099 29343 29350 1
33100 29345 29344 un
33101 29344 29347 1
33102 29346 29345 un
33103 29345 29397 1
33104 29346 29394 1
33105 29348 29347 1
33106 29347 29410 1
33107 29347 29411 1
33108 29349 29348 un
33109 29348 29354 un
33110 29350 29349 1
33111 29349 29351 un
33112 29350 29412 1
33113 29350 29413 1
33114 29352 29351 un
33115 29351 29399 1
33116 29353 29352 un
33117 29352 29400 1
33118 29354 29353 un
33119 29353 29358 un
33120 29354 29355 un
33121 29356 29355 un
33122 29355 29414 1
33123 29357 29356 un
33124 29356 29362 un
33125 29358 29357 un
33126 29357 29359 1
33127 29358 29401 1
33128 29360 29359 1
33129 29359 29366 1
33130 29361 29360 1
33131 29360 29363 1
33132 29362 29361 un
33133 29361 29370 un
33134 29362 29367 un
33135 29364 29363 1
33136 29363 29415 1
33137 29363 29416 1
33138 29365 29364 un
33139 29364 29403 1
33140 29364 29417 1
33141 29366 29365 1
33142 29365 29402 1
33143 29365 29418 1
33144 29366 29419 1
33145 29366 29420 1
33146 29368 29367 un
33147 29367 29405 1
33148 29369 29368 un
33149 29368 29374 1
33150 29370 29369 un
33151 29369 29371 1
33152 29370 29404 1
33153 29372 29371 1
33154 29371 29407 2
33155 29373 29372 un
33156 29372 29378 un
33157 29374 29373 1
33158 29373 29375 1
33159 29374 29406 2
33160 29376 29375 1
33161 29375 29421 1
33162 29375 29422 1
33163 29377 29376 1
33164 29376 29423 1
33165 29376 29424 1
33166 29378 29377 un
33167 29377 29382 un
33168 29378 29379 un
33169 29380 29379 un
33170 29381 29380 un
33171 29380 29389 un
33172 29382 29381 un
33173 29381 29386 1
33174 29382 29383 1
33175 29384 29383 1
33176 29383 29425 1
33177 29383 29426 1
33178 29385 29384 1
33179 29384 29427 1
33180 29384 29428 1
33181 29386 29385 1
33182 29385 29429 1
33183 29385 29430 1
33184 29386 29387 1
33185 29386 29431 1
33186 29388 29387 1
33187 29387 29432 1
33188 29387 29433 1
33189 29389 29388 un
33190 29388 29393 un
33191 29389 29390 un
33192 29391 29390 un
33193 29390 29434 1
33194 29392 29391 un
33195 29391 29435 1
33196 29393 29392 un
33197 29392 29409 1
33198 29393 29408 1
33199 29394 29395 1
33200 29394 29436 1
33201 29394 29437 1
33202 29395 29438 1
33203 29395 29439 1
33204 29395 29440 1
33205 29396 29441 1
33206 29396 29442 1
33207 29396 29443 1
33208 29397 29444 1
33209 29397 29445 1
33210 29397 29446 1
33211 29398 29447 1
33212 29398 29448 1
33213 29398 29449 1
33214 29399 29450 1
33215 29399 29451 1
33216 29399 29452 1
33217 29400 29453 1
33218 29400 29454 1
33219 29400 29455 1
33220 29401 29456 1
33221 29402 29457 1
33222 29402 29458 1
33223 29402 29459 1
33224 29403 29460 1
33225 29403 29461 1
33226 29403 29462 1
33227 29404 29463 1
33228 29405 29464 1
33229 29408 29465 1
33230 29408 29466 1
33231 29408 29467 1
33232 29409 29468 1
33233 29409 29469 1
33234 29409 29470 1
33235 29471 29472 un
33236 29471 29476 un
33237 29471 29526 1
33238 29473 29472 un
33239 29472 29528 1
33240 29474 29473 un
33241 29473 29480 1
33242 29475 29474 un
33243 29474 29477 1
33244 29476 29475 un
33245 29475 29527 1
33246 29476 29524 1
33247 29478 29477 1
33248 29477 29540 1
33249 29477 29541 1
33250 29479 29478 un
33251 29478 29484 un
33252 29480 29479 1
33253 29479 29481 un
33254 29480 29542 1
33255 29480 29543 1
33256 29482 29481 un
33257 29481 29529 1
33258 29483 29482 un
33259 29482 29530 1
33260 29484 29483 un
33261 29483 29488 un
33262 29484 29485 un
33263 29486 29485 un
33264 29485 29544 1
33265 29487 29486 un
33266 29486 29492 un
33267 29488 29487 un
33268 29487 29489 1
33269 29488 29531 1
33270 29490 29489 1
33271 29489 29496 1
33272 29491 29490 1
33273 29490 29493 1
33274 29492 29491 un
33275 29491 29500 un
33276 29492 29497 un
33277 29494 29493 1
33278 29493 29545 1
33279 29493 29546 1
33280 29495 29494 un
33281 29494 29533 1
33282 29494 29547 1
33283 29496 29495 1
33284 29495 29532 1
33285 29495 29548 1
33286 29496 29549 1
33287 29496 29550 1
33288 29498 29497 un
33289 29497 29535 1
33290 29499 29498 un
33291 29498 29504 1
33292 29500 29499 un
33293 29499 29501 1
33294 29500 29534 1
33295 29502 29501 1
33296 29501 29537 2
33297 29503 29502 un
33298 29502 29508 un
33299 29504 29503 1
33300 29503 29505 1
33301 29504 29536 2
33302 29506 29505 1
33303 29505 29551 1
33304 29505 29552 1
33305 29507 29506 1
33306 29506 29553 1
33307 29506 29554 1
33308 29508 29507 un
33309 29507 29512 un
33310 29508 29509 un
33311 29510 29509 un
33312 29511 29510 un
33313 29510 29519 un
33314 29512 29511 un
33315 29511 29516 1
33316 29512 29513 1
33317 29514 29513 1
33318 29513 29555 1
33319 29513 29556 1
33320 29515 29514 1
33321 29514 29557 1
33322 29514 29558 1
33323 29516 29515 1
33324 29515 29559 1
33325 29515 29560 1
33326 29516 29517 1
33327 29516 29561 1
33328 29518 29517 1
33329 29517 29562 1
33330 29517 29563 1
33331 29519 29518 un
33332 29518 29523 un
33333 29519 29520 un
33334 29521 29520 un
33335 29520 29564 1
33336 29522 29521 un
33337 29521 29565 1
33338 29523 29522 un
33339 29522 29539 1
33340 29523 29538 1
33341 29524 29525 1
33342 29524 29566 1
33343 29524 29567 1
33344 29525 29568 1
33345 29525 29569 1
33346 29525 29570 1
33347 29526 29571 1
33348 29526 29572 1
33349 29526 29573 1
33350 29527 29574 1
33351 29527 29575 1
33352 29527 29576 1
33353 29528 29577 1
33354 29528 29578 1
33355 29528 29579 1
33356 29529 29580 1
33357 29529 29581 1
33358 29529 29582 1
33359 29530 29583 1
33360 29530 29584 1
33361 29530 29585 1
33362 29531 29586 1
33363 29532 29587 1
33364 29532 29588 1
33365 29532 29589 1
33366 29533 29590 1
33367 29533 29591 1
33368 29533 29592 1
33369 29534 29593 1
33370 29535 29594 1
33371 29538 29595 1
33372 29538 29596 1
33373 29538 29597 1
33374 29539 29598 1
33375 29539 29599 1
33376 29539 29600 1
33377 29601 29602 un
33378 29601 29606 un
33379 29601 29656 1
33380 29603 29602 un
33381 29602 29658 1
33382 29604 29603 un
33383 29603 29610 1
33384 29605 29604 un
33385 29604 29607 1
33386 29606 29605 un
33387 29605 29657 1
33388 29606 29654 1
33389 29608 29607 1
33390 29607 29670 1
33391 29607 29671 1
33392 29609 29608 un
33393 29608 29614 un
33394 29610 29609 1
33395 29609 29611 un
33396 29610 29672 1
33397 29610 29673 1
33398 29612 29611 un
33399 29611 29659 1
33400 29613 29612 un
33401 29612 29660 1
33402 29614 29613 un
33403 29613 29618 un
33404 29614 29615 un
33405 29616 29615 un
33406 29615 29674 1
33407 29617 29616 un
33408 29616 29622 un
33409 29618 29617 un
33410 29617 29619 1
33411 29618 29661 1
33412 29620 29619 1
33413 29619 29626 1
33414 29621 29620 1
33415 29620 29623 1
33416 29622 29621 un
33417 29621 29630 un
33418 29622 29627 un
33419 29624 29623 1
33420 29623 29675 1
33421 29623 29676 1
33422 29625 29624 un
33423 29624 29663 1
33424 29624 29677 1
33425 29626 29625 1
33426 29625 29662 1
33427 29625 29678 1
33428 29626 29679 1
33429 29626 29680 1
33430 29628 29627 un
33431 29627 29665 1
33432 29629 29628 un
33433 29628 29634 1
33434 29630 29629 un
33435 29629 29631 1
33436 29630 29664 1
33437 29632 29631 1
33438 29631 29667 2
33439 29633 29632 un
33440 29632 29638 un
33441 29634 29633 1
33442 29633 29635 1
33443 29634 29666 2
33444 29636 29635 1
33445 29635 29681 1
33446 29635 29682 1
33447 29637 29636 1
33448 29636 29683 1
33449 29636 29684 1
33450 29638 29637 un
33451 29637 29642 un
33452 29638 29639 un
33453 29640 29639 un
33454 29641 29640 un
33455 29640 29649 un
33456 29642 29641 un
33457 29641 29646 1
33458 29642 29643 1
33459 29644 29643 1
33460 29643 29685 1
33461 29643 29686 1
33462 29645 29644 1
33463 29644 29687 1
33464 29644 29688 1
33465 29646 29645 1
33466 29645 29689 1
33467 29645 29690 1
33468 29646 29647 1
33469 29646 29691 1
33470 29648 29647 1
33471 29647 29692 1
33472 29647 29693 1
33473 29649 29648 un
33474 29648 29653 un
33475 29649 29650 un
33476 29651 29650 un
33477 29650 29694 1
33478 29652 29651 un
33479 29651 29695 1
33480 29653 29652 un
33481 29652 29669 1
33482 29653 29668 1
33483 29654 29655 1
33484 29654 29696 1
33485 29654 29697 1
33486 29655 29698 1
33487 29655 29699 1
33488 29655 29700 1
33489 29656 29701 1
33490 29656 29702 1
33491 29656 29703 1
33492 29657 29704 1
33493 29657 29705 1
33494 29657 29706 1
33495 29658 29707 1
33496 29658 29708 1
33497 29658 29709 1
33498 29659 29710 1
33499 29659 29711 1
33500 29659 29712 1
33501 29660 29713 1
33502 29660 29714 1
33503 29660 29715 1
33504 29661 29716 1
33505 29662 29717 1
33506 29662 29718 1
33507 29662 29719 1
33508 29663 29720 1
33509 29663 29721 1
33510 29663 29722 1
33511 29664 29723 1
33512 29665 29724 1
33513 29668 29725 1
33514 29668 29726 1
33515 29668 29727 1
33516 29669 29728 1
33517 29669 29729 1
33518 29669 29730 1
33519 29731 29732 un
33520 29731 29736 un
33521 29731 29786 1
33522 29733 29732 un
33523 29732 29788 1
33524 29734 29733 un
33525 29733 29740 1
33526 29735 29734 un
33527 29734 29737 1
33528 29736 29735 un
33529 29735 29787 1
33530 29736 29784 1
33531 29738 29737 1
33532 29737 29800 1
33533 29737 29801 1
33534 29739 29738 un
33535 29738 29744 un
33536 29740 29739 1
33537 29739 29741 un
33538 29740 29802 1
33539 29740 29803 1
33540 29742 29741 un
33541 29741 29789 1
33542 29743 29742 un
33543 29742 29790 1
33544 29744 29743 un
33545 29743 29748 un
33546 29744 29745 un
33547 29746 29745 un
33548 29745 29804 1
33549 29747 29746 un
33550 29746 29752 un
33551 29748 29747 un
33552 29747 29749 1
33553 29748 29791 1
33554 29750 29749 1
33555 29749 29756 1
33556 29751 29750 1
33557 29750 29753 1
33558 29752 29751 un
33559 29751 29760 un
33560 29752 29757 un
33561 29754 29753 1
33562 29753 29805 1
33563 29753 29806 1
33564 29755 29754 un
33565 29754 29793 1
33566 29754 29807 1
33567 29756 29755 1
33568 29755 29792 1
33569 29755 29808 1
33570 29756 29809 1
33571 29756 29810 1
33572 29758 29757 un
33573 29757 29795 1
33574 29759 29758 un
33575 29758 29764 1
33576 29760 29759 un
33577 29759 29761 1
33578 29760 29794 1
33579 29762 29761 1
33580 29761 29797 2
33581 29763 29762 un
33582 29762 29768 un
33583 29764 29763 1
33584 29763 29765 1
33585 29764 29796 2
33586 29766 29765 1
33587 29765 29811 1
33588 29765 29812 1
33589 29767 29766 1
33590 29766 29813 1
33591 29766 29814 1
33592 29768 29767 un
33593 29767 29772 un
33594 29768 29769 un
33595 29770 29769 un
33596 29771 29770 un
33597 29770 29779 un
33598 29772 29771 un
33599 29771 29776 1
33600 29772 29773 1
33601 29774 29773 1
33602 29773 29815 1
33603 29773 29816 1
33604 29775 29774 1
33605 29774 29817 1
33606 29774 29818 1
33607 29776 29775 1
33608 29775 29819 1
33609 29775 29820 1
33610 29776 29777 1
33611 29776 29821 1
33612 29778 29777 1
33613 29777 29822 1
33614 29777 29823 1
33615 29779 29778 un
33616 29778 29783 un
33617 29779 29780 un
33618 29781 29780 un
33619 29780 29824 1
33620 29782 29781 un
33621 29781 29825 1
33622 29783 29782 un
33623 29782 29799 1
33624 29783 29798 1
33625 29784 29785 1
33626 29784 29826 1
33627 29784 29827 1
33628 29785 29828 1
33629 29785 29829 1
33630 29785 29830 1
33631 29786 29831 1
33632 29786 29832 1
33633 29786 29833 1
33634 29787 29834 1
33635 29787 29835 1
33636 29787 29836 1
33637 29788 29837 1
33638 29788 29838 1
33639 29788 29839 1
33640 29789 29840 1
33641 29789 29841 1
33642 29789 29842 1
33643 29790 29843 1
33644 29790 29844 1
33645 29790 29845 1
33646 29791 29846 1
33647 29792 29847 1
33648 29792 29848 1
33649 29792 29849 1
33650 29793 29850 1
33651 29793 29851 1
33652 29793 29852 1
33653 29794 29853 1
33654 29795 29854 1
33655 29798 29855 1
33656 29798 29856 1
33657 29798 29857 1
33658 29799 29858 1
33659 29799 29859 1
33660 29799 29860 1
33661 29861 29862 un
33662 29861 29866 un
33663 29861 29916 1
33664 29863 29862 un
33665 29862 29918 1
33666 29864 29863 un
33667 29863 29870 1
33668 29865 29864 un
33669 29864 29867 1
33670 29866 29865 un
33671 29865 29917 1
33672 29866 29914 1
33673 29868 29867 1
33674 29867 29930 1
33675 29867 29931 1
33676 29869 29868 un
33677 29868 29874 un
33678 29870 29869 1
33679 29869 29871 un
33680 29870 29932 1
33681 29870 29933 1
33682 29872 29871 un
33683 29871 29919 1
33684 29873 29872 un
33685 29872 29920 1
33686 29874 29873 un
33687 29873 29878 un
33688 29874 29875 un
33689 29876 29875 un
33690 29875 29934 1
33691 29877 29876 un
33692 29876 29882 un
33693 29878 29877 un
33694 29877 29879 1
33695 29878 29921 1
33696 29880 29879 1
33697 29879 29886 1
33698 29881 29880 1
33699 29880 29883 1
33700 29882 29881 un
33701 29881 29890 un
33702 29882 29887 un
33703 29884 29883 1
33704 29883 29935 1
33705 29883 29936 1
33706 29885 29884 un
33707 29884 29923 1
33708 29884 29937 1
33709 29886 29885 1
33710 29885 29922 1
33711 29885 29938 1
33712 29886 29939 1
33713 29886 29940 1
33714 29888 29887 un
33715 29887 29925 1
33716 29889 29888 un
33717 29888 29894 1
33718 29890 29889 un
33719 29889 29891 1
33720 29890 29924 1
33721 29892 29891 1
33722 29891 29927 2
33723 29893 29892 un
33724 29892 29898 un
33725 29894 29893 1
33726 29893 29895 1
33727 29894 29926 2
33728 29896 29895 1
33729 29895 29941 1
33730 29895 29942 1
33731 29897 29896 1
33732 29896 29943 1
33733 29896 29944 1
33734 29898 29897 un
33735 29897 29902 un
33736 29898 29899 un
33737 29900 29899 un
33738 29901 29900 un
33739 29900 29909 un
33740 29902 29901 un
33741 29901 29906 1
33742 29902 29903 1
33743 29904 29903 1
33744 29903 29945 1
33745 29903 29946 1
33746 29905 29904 1
33747 29904 29947 1
33748 29904 29948 1
33749 29906 29905 1
33750 29905 29949 1
33751 29905 29950 1
33752 29906 29907 1
33753 29906 29951 1
33754 29908 29907 1
33755 29907 29952 1
33756 29907 29953 1
33757 29909 29908 un
33758 29908 29913 un
33759 29909 29910 un
33760 29911 29910 un
33761 29910 29954 1
33762 29912 29911 un
33763 29911 29955 1
33764 29913 29912 un
33765 29912 29929 1
33766 29913 29928 1
33767 29914 29915 1
33768 29914 29956 1
33769 29914 29957 1
33770 29915 29958 1
33771 29915 29959 1
33772 29915 29960 1
33773 29916 29961 1
33774 29916 29962 1
33775 29916 29963 1
33776 29917 29964 1
33777 29917 29965 1
33778 29917 29966 1
33779 29918 29967 1
33780 29918 29968 1
33781 29918 29969 1
33782 29919 29970 1
33783 29919 29971 1
33784 29919 29972 1
33785 29920 29973 1
33786 29920 29974 1
33787 29920 29975 1
33788 29921 29976 1
33789 29922 29977 1
33790 29922 29978 1
33791 29922 29979 1
33792 29923 29980 1
33793 29923 29981 1
33794 29923 29982 1
33795 29924 29983 1
33796 29925 29984 1
33797 29928 29985 1
33798 29928 29986 1
33799 29928 29987 1
33800 29929 29988 1
33801 29929 29989 1
33802 29929 29990 1
33803 29991 29992 un
33804 29991 29996 un
33805 29991 30046 1
33806 29993 29992 un
33807 29992 30048 1
33808 29994 29993 un
33809 29993 30000 1
33810 29995 29994 un
33811 29994 29997 1
33812 29996 29995 un
33813 29995 30047 1
33814 29996 30044 1
33815 29998 29997 1
33816 29997 30060 1
33817 29997 30061 1
33818 29999 29998 un
33819 29998 30004 un
33820 30000 29999 1
33821 29999 30001 un
33822 30000 30062 1
33823 30000 30063 1
33824 30002 30001 un
33825 30001 30049 1
33826 30003 30002 un
33827 30002 30050 1
33828 30004 30003 un
33829 30003 30008 un
33830 30004 30005 un
33831 30006 30005 un
33832 30005 30064 1
33833 30007 30006 un
33834 30006 30012 un
33835 30008 30007 un
33836 30007 30009 1
33837 30008 30051 1
33838 30010 30009 1
33839 30009 30016 1
33840 30011 30010 1
33841 30010 30013 1
33842 30012 30011 un
33843 30011 30020 un
33844 30012 30017 un
33845 30014 30013 1
33846 30013 30065 1
33847 30013 30066 1
33848 30015 30014 un
33849 30014 30053 1
33850 30014 30067 1
33851 30016 30015 1
33852 30015 30052 1
33853 30015 30068 1
33854 30016 30069 1
33855 30016 30070 1
33856 30018 30017 un
33857 30017 30055 1
33858 30019 30018 un
33859 30018 30024 1
33860 30020 30019 un
33861 30019 30021 1
33862 30020 30054 1
33863 30022 30021 1
33864 30021 30057 2
33865 30023 30022 un
33866 30022 30028 un
33867 30024 30023 1
33868 30023 30025 1
33869 30024 30056 2
33870 30026 30025 1
33871 30025 30071 1
33872 30025 30072 1
33873 30027 30026 1
33874 30026 30073 1
33875 30026 30074 1
33876 30028 30027 un
33877 30027 30032 un
33878 30028 30029 un
33879 30030 30029 un
33880 30031 30030 un
33881 30030 30039 un
33882 30032 30031 un
33883 30031 30036 1
33884 30032 30033 1
33885 30034 30033 1
33886 30033 30075 1
33887 30033 30076 1
33888 30035 30034 1
33889 30034 30077 1
33890 30034 30078 1
33891 30036 30035 1
33892 30035 30079 1
33893 30035 30080 1
33894 30036 30037 1
33895 30036 30081 1
33896 30038 30037 1
33897 30037 30082 1
33898 30037 30083 1
33899 30039 30038 un
33900 30038 30043 un
33901 30039 30040 un
33902 30041 30040 un
33903 30040 30084 1
33904 30042 30041 un
33905 30041 30085 1
33906 30043 30042 un
33907 30042 30059 1
33908 30043 30058 1
33909 30044 30045 1
33910 30044 30086 1
33911 30044 30087 1
33912 30045 30088 1
33913 30045 30089 1
33914 30045 30090 1
33915 30046 30091 1
33916 30046 30092 1
33917 30046 30093 1
33918 30047 30094 1
33919 30047 30095 1
33920 30047 30096 1
33921 30048 30097 1
33922 30048 30098 1
33923 30048 30099 1
33924 30049 30100 1
33925 30049 30101 1
33926 30049 30102 1
33927 30050 30103 1
33928 30050 30104 1
33929 30050 30105 1
33930 30051 30106 1
33931 30052 30107 1
33932 30052 30108 1
33933 30052 30109 1
33934 30053 30110 1
33935 30053 30111 1
33936 30053 30112 1
33937 30054 30113 1
33938 30055 30114 1
33939 30058 30115 1
33940 30058 30116 1
33941 30058 30117 1
33942 30059 30118 1
33943 30059 30119 1
33944 30059 30120 1
33945 30121 30122 un
33946 30121 30126 un
33947 30121 30176 1
33948 30123 30122 un
33949 30122 30178 1
33950 30124 30123 un
33951 30123 30130 1
33952 30125 30124 un
33953 30124 30127 1
33954 30126 30125 un
33955 30125 30177 1
33956 30126 30174 1
33957 30128 30127 1
33958 30127 30190 1
33959 30127 30191 1
33960 30129 30128 un
33961 30128 30134 un
33962 30130 30129 1
33963 30129 30131 un
33964 30130 30192 1
33965 30130 30193 1
33966 30132 30131 un
33967 30131 30179 1
33968 30133 30132 un
33969 30132 30180 1
33970 30134 30133 un
33971 30133 30138 un
33972 30134 30135 un
33973 30136 30135 un
33974 30135 30194 1
33975 30137 30136 un
33976 30136 30142 un
33977 30138 30137 un
33978 30137 30139 1
33979 30138 30181 1
33980 30140 30139 1
33981 30139 30146 1
33982 30141 30140 1
33983 30140 30143 1
33984 30142 30141 un
33985 30141 30150 un
33986 30142 30147 un
33987 30144 30143 1
33988 30143 30195 1
33989 30143 30196 1
33990 30145 30144 un
33991 30144 30183 1
33992 30144 30197 1
33993 30146 30145 1
33994 30145 30182 1
33995 30145 30198 1
33996 30146 30199 1
33997 30146 30200 1
33998 30148 30147 un
33999 30147 30185 1
34000 30149 30148 un
34001 30148 30154 1
34002 30150 30149 un
34003 30149 30151 1
34004 30150 30184 1
34005 30152 30151 1
34006 30151 30187 2
34007 30153 30152 un
34008 30152 30158 un
34009 30154 30153 1
34010 30153 30155 1
34011 30154 30186 2
34012 30156 30155 1
34013 30155 30201 1
34014 30155 30202 1
34015 30157 30156 1
34016 30156 30203 1
34017 30156 30204 1
34018 30158 30157 un
34019 30157 30162 un
34020 30158 30159 un
34021 30160 30159 un
34022 30161 30160 un
34023 30160 30169 un
34024 30162 30161 un
34025 30161 30166 1
34026 30162 30163 1
34027 30164 30163 1
34028 30163 30205 1
34029 30163 30206 1
34030 30165 30164 1
34031 30164 30207 1
34032 30164 30208 1
34033 30166 30165 1
34034 30165 30209 1
34035 30165 30210 1
34036 30166 30167 1
34037 30166 30211 1
34038 30168 30167 1
34039 30167 30212 1
34040 30167 30213 1
34041 30169 30168 un
34042 30168 30173 un
34043 30169 30170 un
34044 30171 30170 un
34045 30170 30214 1
34046 30172 30171 un
34047 30171 30215 1
34048 30173 30172 un
34049 30172 30189 1
34050 30173 30188 1
34051 30174 30175 1
34052 30174 30216 1
34053 30174 30217 1
34054 30175 30218 1
34055 30175 30219 1
34056 30175 30220 1
34057 30176 30221 1
34058 30176 30222 1
34059 30176 30223 1
34060 30177 30224 1
34061 30177 30225 1
34062 30177 30226 1
34063 30178 30227 1
34064 30178 30228 1
34065 30178 30229 1
34066 30179 30230 1
34067 30179 30231 1
34068 30179 30232 1
34069 30180 30233 1
34070 30180 30234 1
34071 30180 30235 1
34072 30181 30236 1
34073 30182 30237 1
34074 30182 30238 1
34075 30182 30239 1
34076 30183 30240 1
34077 30183 30241 1
34078 30183 30242 1
34079 30184 30243 1
34080 30185 30244 1
34081 30188 30245 1
34082 30188 30246 1
34083 30188 30247 1
34084 30189 30248 1
34085 30189 30249 1
34086 30189 30250 1
34087 30251 30252 un
34088 30251 30256 un
34089 30251 30306 1
34090 30253 30252 un
34091 30252 30308 1
34092 30254 30253 un
34093 30253 30260 1
34094 30255 30254 un
34095 30254 30257 1
34096 30256 30255 un
34097 30255 30307 1
34098 30256 30304 1
34099 30258 30257 1
34100 30257 30320 1
34101 30257 30321 1
34102 30259 30258 un
34103 30258 30264 un
34104 30260 30259 1
34105 30259 30261 un
34106 30260 30322 1
34107 30260 30323 1
34108 30262 30261 un
34109 30261 30309 1
34110 30263 30262 un
34111 30262 30310 1
34112 30264 30263 un
34113 30263 30268 un
34114 30264 30265 un
34115 30266 30265 un
34116 30265 30324 1
34117 30267 30266 un
34118 30266 30272 un
34119 30268 30267 un
34120 30267 30269 1
34121 30268 30311 1
34122 30270 30269 1
34123 30269 30276 1
34124 30271 30270 1
34125 30270 30273 1
34126 30272 30271 un
34127 30271 30280 un
34128 30272 30277 un
34129 30274 30273 1
34130 30273 30325 1
34131 30273 30326 1
34132 30275 30274 un
34133 30274 30313 1
34134 30274 30327 1
34135 30276 30275 1
34136 30275 30312 1
34137 30275 30328 1
34138 30276 30329 1
34139 30276 30330 1
34140 30278 30277 un
34141 30277 30315 1
34142 30279 30278 un
34143 30278 30284 1
34144 30280 30279 un
34145 30279 30281 1
34146 30280 30314 1
34147 30282 30281 1
34148 30281 30317 2
34149 30283 30282 un
34150 30282 30288 un
34151 30284 30283 1
34152 30283 30285 1
34153 30284 30316 2
34154 30286 30285 1
34155 30285 30331 1
34156 30285 30332 1
34157 30287 30286 1
34158 30286 30333 1
34159 30286 30334 1
34160 30288 30287 un
34161 30287 30292 un
34162 30288 30289 un
34163 30290 30289 un
34164 30291 30290 un
34165 30290 30299 un
34166 30292 30291 un
34167 30291 30296 1
34168 30292 30293 1
34169 30294 30293 1
34170 30293 30335 1
34171 30293 30336 1
34172 30295 30294 1
34173 30294 30337 1
34174 30294 30338 1
34175 30296 30295 1
34176 30295 30339 1
34177 30295 30340 1
34178 30296 30297 1
34179 30296 30341 1
34180 30298 30297 1
34181 30297 30342 1
34182 30297 30343 1
34183 30299 30298 un
34184 30298 30303 un
34185 30299 30300 un
34186 30301 30300 un
34187 30300 30344 1
34188 30302 30301 un
34189 30301 30345 1
34190 30303 30302 un
34191 30302 30319 1
34192 30303 30318 1
34193 30304 30305 1
34194 30304 30346 1
34195 30304 30347 1
34196 30305 30348 1
34197 30305 30349 1
34198 30305 30350 1
34199 30306 30351 1
34200 30306 30352 1
34201 30306 30353 1
34202 30307 30354 1
34203 30307 30355 1
34204 30307 30356 1
34205 30308 30357 1
34206 30308 30358 1
34207 30308 30359 1
34208 30309 30360 1
34209 30309 30361 1
34210 30309 30362 1
34211 30310 30363 1
34212 30310 30364 1
34213 30310 30365 1
34214 30311 30366 1
34215 30312 30367 1
34216 30312 30368 1
34217 30312 30369 1
34218 30313 30370 1
34219 30313 30371 1
34220 30313 30372 1
34221 30314 30373 1
34222 30315 30374 1
34223 30318 30375 1
34224 30318 30376 1
34225 30318 30377 1
34226 30319 30378 1
34227 30319 30379 1
34228 30319 30380 1
34229 30381 30382 un
34230 30381 30386 un
34231 30381 30436 1
34232 30383 30382 un
34233 30382 30438 1
34234 30384 30383 un
34235 30383 30390 1
34236 30385 30384 un
34237 30384 30387 1
34238 30386 30385 un
34239 30385 30437 1
34240 30386 30434 1
34241 30388 30387 1
34242 30387 30450 1
34243 30387 30451 1
34244 30389 30388 un
34245 30388 30394 un
34246 30390 30389 1
34247 30389 30391 un
34248 30390 30452 1
34249 30390 30453 1
34250 30392 30391 un
34251 30391 30439 1
34252 30393 30392 un
34253 30392 30440 1
34254 30394 30393 un
34255 30393 30398 un
34256 30394 30395 un
34257 30396 30395 un
34258 30395 30454 1
34259 30397 30396 un
34260 30396 30402 un
34261 30398 30397 un
34262 30397 30399 1
34263 30398 30441 1
34264 30400 30399 1
34265 30399 30406 1
34266 30401 30400 1
34267 30400 30403 1
34268 30402 30401 un
34269 30401 30410 un
34270 30402 30407 un
34271 30404 30403 1
34272 30403 30455 1
34273 30403 30456 1
34274 30405 30404 un
34275 30404 30443 1
34276 30404 30457 1
34277 30406 30405 1
34278 30405 30442 1
34279 30405 30458 1
34280 30406 30459 1
34281 30406 30460 1
34282 30408 30407 un
34283 30407 30445 1
34284 30409 30408 un
34285 30408 30414 1
34286 30410 30409 un
34287 30409 30411 1
34288 30410 30444 1
34289 30412 30411 1
34290 30411 30447 2
34291 30413 30412 un
34292 30412 30418 un
34293 30414 30413 1
34294 30413 30415 1
34295 30414 30446 2
34296 30416 30415 1
34297 30415 30461 1
34298 30415 30462 1
34299 30417 30416 1
34300 30416 30463 1
34301 30416 30464 1
34302 30418 30417 un
34303 30417 30422 un
34304 30418 30419 un
34305 30420 30419 un
34306 30421 30420 un
34307 30420 30429 un
34308 30422 30421 un
34309 30421 30426 1
34310 30422 30423 1
34311 30424 30423 1
34312 30423 30465 1
34313 30423 30466 1
34314 30425 30424 1
34315 30424 30467 1
34316 30424 30468 1
34317 30426 30425 1
34318 30425 30469 1
34319 30425 30470 1
34320 30426 30427 1
34321 30426 30471 1
34322 30428 30427 1
34323 30427 30472 1
34324 30427 30473 1
34325 30429 30428 un
34326 30428 30433 un
34327 30429 30430 un
34328 30431 30430 un
34329 30430 30474 1
34330 30432 30431 un
34331 30431 30475 1
34332 30433 30432 un
34333 30432 30449 1
34334 30433 30448 1
34335 30434 30435 1
34336 30434 30476 1
34337 30434 30477 1
34338 30435 30478 1
34339 30435 30479 1
34340 30435 30480 1
34341 30436 30481 1
34342 30436 30482 1
34343 30436 30483 1
34344 30437 30484 1
34345 30437 30485 1
34346 30437 30486 1
34347 30438 30487 1
34348 30438 30488 1
34349 30438 30489 1
34350 30439 30490 1
34351 30439 30491 1
34352 30439 30492 1
34353 30440 30493 1
34354 30440 30494 1
34355 30440 30495 1
34356 30441 30496 1
34357 30442 30497 1
34358 30442 30498 1
34359 30442 30499 1
34360 30443 30500 1
34361 30443 30501 1
34362 30443 30502 1
34363 30444 30503 1
34364 30445 30504 1
34365 30448 30505 1
34366 30448 30506 1
34367 30448 30507 1
34368 30449 30508 1
34369 30449 30509 1
34370 30449 30510 1
34371 30511 30512 un
34372 30511 30516 un
34373 30511 30566 1
34374 30513 30512 un
34375 30512 30568 1
34376 30514 30513 un
34377 30513 30520 1
34378 30515 30514 un
34379 30514 30517 1
34380 30516 30515 un
34381 30515 30567 1
34382 30516 30564 1
34383 30518 30517 1
34384 30517 30580 1
34385 30517 30581 1
34386 30519 30518 un
34387 30518 30524 un
34388 30520 30519 1
34389 30519 30521 un
34390 30520 30582 1
34391 30520 30583 1
34392 30522 30521 un
34393 30521 30569 1
34394 30523 30522 un
34395 30522 30570 1
34396 30524 30523 un
34397 30523 30528 un
34398 30524 30525 un
34399 30526 30525 un
34400 30525 30584 1
34401 30527 30526 un
34402 30526 30532 un
34403 30528 30527 un
34404 30527 30529 1
34405 30528 30571 1
34406 30530 30529 1
34407 30529 30536 1
34408 30531 30530 1
34409 30530 30533 1
34410 30532 30531 un
34411 30531 30540 un
34412 30532 30537 un
34413 30534 30533 1
34414 30533 30585 1
34415 30533 30586 1
34416 30535 30534 un
34417 30534 30573 1
34418 30534 30587 1
34419 30536 30535 1
34420 30535 30572 1
34421 30535 30588 1
34422 30536 30589 1
34423 30536 30590 1
34424 30538 30537 un
34425 30537 30575 1
34426 30539 30538 un
34427 30538 30544 1
34428 30540 30539 un
34429 30539 30541 1
34430 30540 30574 1
34431 30542 30541 1
34432 30541 30577 2
34433 30543 30542 un
34434 30542 30548 un
34435 30544 30543 1
34436 30543 30545 1
34437 30544 30576 2
34438 30546 30545 1
34439 30545 30591 1
34440 30545 30592 1
34441 30547 30546 1
34442 30546 30593 1
34443 30546 30594 1
34444 30548 30547 un
34445 30547 30552 un
34446 30548 30549 un
34447 30550 30549 un
34448 30551 30550 un
34449 30550 30559 un
34450 30552 30551 un
34451 30551 30556 1
34452 30552 30553 1
34453 30554 30553 1
34454 30553 30595 1
34455 30553 30596 1
34456 30555 30554 1
34457 30554 30597 1
34458 30554 30598 1
34459 30556 30555 1
34460 30555 30599 1
34461 30555 30600 1
34462 30556 30557 1
34463 30556 30601 1
34464 30558 30557 1
34465 30557 30602 1
34466 30557 30603 1
34467 30559 30558 un
34468 30558 30563 un
34469 30559 30560 un
34470 30561 30560 un
34471 30560 30604 1
34472 30562 30561 un
34473 30561 30605 1
34474 30563 30562 un
34475 30562 30579 1
34476 30563 30578 1
34477 30564 30565 1
34478 30564 30606 1
34479 30564 30607 1
34480 30565 30608 1
34481 30565 30609 1
34482 30565 30610 1
34483 30566 30611 1
34484 30566 30612 1
34485 30566 30613 1
34486 30567 30614 1
34487 30567 30615 1
34488 30567 30616 1
34489 30568 30617 1
34490 30568 30618 1
34491 30568 30619 1
34492 30569 30620 1
34493 30569 30621 1
34494 30569 30622 1
34495 30570 30623 1
34496 30570 30624 1
34497 30570 30625 1
34498 30571 30626 1
34499 30572 30627 1
34500 30572 30628 1
34501 30572 30629 1
34502 30573 30630 1
34503 30573 30631 1
34504 30573 30632 1
34505 30574 30633 1
34506 30575 30634 1
34507 30578 30635 1
34508 30578 30636 1
34509 30578 30637 1
34510 30579 30638 1
34511 30579 30639 1
34512 30579 30640 1
34513 30641 30642 un
34514 30641 30646 un
34515 30641 30696 1
34516 30643 30642 un
34517 30642 30698 1
34518 30644 30643 un
34519 30643 30650 1
34520 30645 30644 un
34521 30644 30647 1
34522 30646 30645 un
34523 30645 30697 1
34524 30646 30694 1
34525 30648 30647 1
34526 30647 30710 1
34527 30647 30711 1
34528 30649 30648 un
34529 30648 30654 un
34530 30650 30649 1
34531 30649 30651 un
34532 30650 30712 1
34533 30650 30713 1
34534 30652 30651 un
34535 30651 30699 1
34536 30653 30652 un
34537 30652 30700 1
34538 30654 30653 un
34539 30653 30658 un
34540 30654 30655 un
34541 30656 30655 un
34542 30655 30714 1
34543 30657 30656 un
34544 30656 30662 un
34545 30658 30657 un
34546 30657 30659 1
34547 30658 30701 1
34548 30660 30659 1
34549 30659 30666 1
34550 30661 30660 1
34551 30660 30663 1
34552 30662 30661 un
34553 30661 30670 un
34554 30662 30667 un
34555 30664 30663 1
34556 30663 30715 1
34557 30663 30716 1
34558 30665 30664 un
34559 30664 30703 1
34560 30664 30717 1
34561 30666 30665 1
34562 30665 30702 1
34563 30665 30718 1
34564 30666 30719 1
34565 30666 30720 1
34566 30668 30667 un
34567 30667 30705 1
34568 30669 30668 un
34569 30668 30674 1
34570 30670 30669 un
34571 30669 30671 1
34572 30670 30704 1
34573 30672 30671 1
34574 30671 30707 2
34575 30673 30672 un
34576 30672 30678 un
34577 30674 30673 1
34578 30673 30675 1
34579 30674 30706 2
34580 30676 30675 1
34581 30675 30721 1
34582 30675 30722 1
34583 30677 30676 1
34584 30676 30723 1
34585 30676 30724 1
34586 30678 30677 un
34587 30677 30682 un
34588 30678 30679 un
34589 30680 30679 un
34590 30681 30680 un
34591 30680 30689 un
34592 30682 30681 un
34593 30681 30686 1
34594 30682 30683 1
34595 30684 30683 1
34596 30683 30725 1
34597 30683 30726 1
34598 30685 30684 1
34599 30684 30727 1
34600 30684 30728 1
34601 30686 30685 1
34602 30685 30729 1
34603 30685 30730 1
34604 30686 30687 1
34605 30686 30731 1
34606 30688 30687 1
34607 30687 30732 1
34608 30687 30733 1
34609 30689 30688 un
34610 30688 30693 un
34611 30689 30690 un
34612 30691 30690 un
34613 30690 30734 1
34614 30692 30691 un
34615 30691 30735 1
34616 30693 30692 un
34617 30692 30709 1
34618 30693 30708 1
34619 30694 30695 1
34620 30694 30736 1
34621 30694 30737 1
34622 30695 30738 1
34623 30695 30739 1
34624 30695 30740 1
34625 30696 30741 1
34626 30696 30742 1
34627 30696 30743 1
34628 30697 30744 1
34629 30697 30745 1
34630 30697 30746 1
34631 30698 30747 1
34632 30698 30748 1
34633 30698 30749 1
34634 30699 30750 1
34635 30699 30751 1
34636 30699 30752 1
34637 30700 30753 1
34638 30700 30754 1
34639 30700 30755 1
34640 30701 30756 1
34641 30702 30757 1
34642 30702 30758 1
34643 30702 30759 1
34644 30703 30760 1
34645 30703 30761 1
34646 30703 30762 1
34647 30704 30763 1
34648 30705 30764 1
34649 30708 30765 1
34650 30708 30766 1
34651 30708 30767 1
34652 30709 30768 1
34653 30709 30769 1
34654 30709 30770 1
34655 30771 30772 un
34656 30771 30776 un
34657 30771 30826 1
34658 30773 30772 un
34659 30772 30828 1
34660 30774 30773 un
34661 30773 30780 1
34662 30775 30774 un
34663 30774 30777 1
34664 30776 30775 un
34665 30775 30827 1
34666 30776 30824 1
34667 30778 30777 1
34668 30777 30840 1
34669 30777 30841 1
34670 30779 30778 un
34671 30778 30784 un
34672 30780 30779 1
34673 30779 30781 un
34674 30780 30842 1
34675 30780 30843 1
34676 30782 30781 un
34677 30781 30829 1
34678 30783 30782 un
34679 30782 30830 1
34680 30784 30783 un
34681 30783 30788 un
34682 30784 30785 un
34683 30786 30785 un
34684 30785 30844 1
34685 30787 30786 un
34686 30786 30792 un
34687 30788 30787 un
34688 30787 30789 1
34689 30788 30831 1
34690 30790 30789 1
34691 30789 30796 1
34692 30791 30790 1
34693 30790 30793 1
34694 30792 30791 un
34695 30791 30800 un
34696 30792 30797 un
34697 30794 30793 1
34698 30793 30845 1
34699 30793 30846 1
34700 30795 30794 un
34701 30794 30833 1
34702 30794 30847 1
34703 30796 30795 1
34704 30795 30832 1
34705 30795 30848 1
34706 30796 30849 1
34707 30796 30850 1
34708 30798 30797 un
34709 30797 30835 1
34710 30799 30798 un
34711 30798 30804 1
34712 30800 30799 un
34713 30799 30801 1
34714 30800 30834 1
34715 30802 30801 1
34716 30801 30837 2
34717 30803 30802 un
34718 30802 30808 un
34719 30804 30803 1
34720 30803 30805 1
34721 30804 30836 2
34722 30806 30805 1
34723 30805 30851 1
34724 30805 30852 1
34725 30807 30806 1
34726 30806 30853 1
34727 30806 30854 1
34728 30808 30807 un
34729 30807 30812 un
34730 30808 30809 un
34731 30810 30809 un
34732 30811 30810 un
34733 30810 30819 un
34734 30812 30811 un
34735 30811 30816 1
34736 30812 30813 1
34737 30814 30813 1
34738 30813 30855 1
34739 30813 30856 1
34740 30815 30814 1
34741 30814 30857 1
34742 30814 30858 1
34743 30816 30815 1
34744 30815 30859 1
34745 30815 30860 1
34746 30816 30817 1
34747 30816 30861 1
34748 30818 30817 1
34749 30817 30862 1
34750 30817 30863 1
34751 30819 30818 un
34752 30818 30823 un
34753 30819 30820 un
34754 30821 30820 un
34755 30820 30864 1
34756 30822 30821 un
34757 30821 30865 1
34758 30823 30822 un
34759 30822 30839 1
34760 30823 30838 1
34761 30824 30825 1
34762 30824 30866 1
34763 30824 30867 1
34764 30825 30868 1
34765 30825 30869 1
34766 30825 30870 1
34767 30826 30871 1
34768 30826 30872 1
34769 30826 30873 1
34770 30827 30874 1
34771 30827 30875 1
34772 30827 30876 1
34773 30828 30877 1
34774 30828 30878 1
34775 30828 30879 1
34776 30829 30880 1
34777 30829 30881 1
34778 30829 30882 1
34779 30830 30883 1
34780 30830 30884 1
34781 30830 30885 1
34782 30831 30886 1
34783 30832 30887 1
34784 30832 30888 1
34785 30832 30889 1
34786 30833 30890 1
34787 30833 30891 1
34788 30833 30892 1
34789 30834 30893 1
34790 30835 30894 1
34791 30838 30895 1
34792 30838 30896 1
34793 30838 30897 1
34794 30839 30898 1
34795 30839 30899 1
34796 30839 30900 1
34797 30901 30902 un
34798 30901 30906 un
34799 30901 30956 1
34800 30903 30902 un
34801 30902 30958 1
34802 30904 30903 un
34803 30903 30910 1
34804 30905 30904 un
34805 30904 30907 1
34806 30906 30905 un
34807 30905 30957 1
34808 30906 30954 1
34809 30908 30907 1
34810 30907 30970 1
34811 30907 30971 1
34812 30909 30908 un
34813 30908 30914 un
34814 30910 30909 1
34815 30909 30911 un
34816 30910 30972 1
34817 30910 30973 1
34818 30912 30911 un
34819 30911 30959 1
34820 30913 30912 un
34821 30912 30960 1
34822 30914 30913 un
34823 30913 30918 un
34824 30914 30915 un
34825 30916 30915 un
34826 30915 30974 1
34827 30917 30916 un
34828 30916 30922 un
34829 30918 30917 un
34830 30917 30919 1
34831 30918 30961 1
34832 30920 30919 1
34833 30919 30926 1
34834 30921 30920 1
34835 30920 30923 1
34836 30922 30921 un
34837 30921 30930 un
34838 30922 30927 un
34839 30924 30923 1
34840 30923 30975 1
34841 30923 30976 1
34842 30925 30924 un
34843 30924 30963 1
34844 30924 30977 1
34845 30926 30925 1
34846 30925 30962 1
34847 30925 30978 1
34848 30926 30979 1
34849 30926 30980 1
34850 30928 30927 un
34851 30927 30965 1
34852 30929 30928 un
34853 30928 30934 1
34854 30930 30929 un
34855 30929 30931 1
34856 30930 30964 1
34857 30932 30931 1
34858 30931 30967 2
34859 30933 30932 un
34860 30932 30938 un
34861 30934 30933 1
34862 30933 30935 1
34863 30934 30966 2
34864 30936 30935 1
34865 30935 30981 1
34866 30935 30982 1
34867 30937 30936 1
34868 30936 30983 1
34869 30936 30984 1
34870 30938 30937 un
34871 30937 30942 un
34872 30938 30939 un
34873 30940 30939 un
34874 30941 30940 un
34875 30940 30949 un
34876 30942 30941 un
34877 30941 30946 1
34878 30942 30943 1
34879 30944 30943 1
34880 30943 30985 1
34881 30943 30986 1
34882 30945 30944 1
34883 30944 30987 1
34884 30944 30988 1
34885 30946 30945 1
34886 30945 30989 1
34887 30945 30990 1
34888 30946 30947 1
34889 30946 30991 1
34890 30948 30947 1
34891 30947 30992 1
34892 30947 30993 1
34893 30949 30948 un
34894 30948 30953 un
34895 30949 30950 un
34896 30951 30950 un
34897 30950 30994 1
34898 30952 30951 un
34899 30951 30995 1
34900 30953 30952 un
34901 30952 30969 1
34902 30953 30968 1
34903 30954 30955 1
34904 30954 30996 1
34905 30954 30997 1
34906 30955 30998 1
34907 30955 30999 1
34908 30955 31000 1
34909 30956 31001 1
34910 30956 31002 1
34911 30956 31003 1
34912 30957 31004 1
34913 30957 31005 1
34914 30957 31006 1
34915 30958 31007 1
34916 30958 31008 1
34917 30958 31009 1
34918 30959 31010 1
34919 30959 31011 1
34920 30959 31012 1
34921 30960 31013 1
34922 30960 31014 1
34923 30960 31015 1
34924 30961 31016 1
34925 30962 31017 1
34926 30962 31018 1
34927 30962 31019 1
34928 30963 31020 1
34929 30963 31021 1
34930 30963 31022 1
34931 30964 31023 1
34932 30965 31024 1
34933 30968 31025 1
34934 30968 31026 1
34935 30968 31027 1
34936 30969 31028 1
34937 30969 31029 1
34938 30969 31030 1
34939 31031 31032 un
34940 31031 31036 un
34941 31031 31086 1
34942 31033 31032 un
34943 31032 31088 1
34944 31034 31033 un
34945 31033 31040 1
34946 31035 31034 un
34947 31034 31037 1
34948 31036 31035 un
34949 31035 31087 1
34950 31036 31084 1
34951 31038 31037 1
34952 31037 31100 1
34953 31037 31101 1
34954 31039 31038 un
34955 31038 31044 un
34956 31040 31039 1
34957 31039 31041 un
34958 31040 31102 1
34959 31040 31103 1
34960 31042 31041 un
34961 31041 31089 1
34962 31043 31042 un
34963 31042 31090 1
34964 31044 31043 un
34965 31043 31048 un
34966 31044 31045 un
34967 31046 31045 un
34968 31045 31104 1
34969 31047 31046 un
34970 31046 31052 un
34971 31048 31047 un
34972 31047 31049 1
34973 31048 31091 1
34974 31050 31049 1
34975 31049 31056 1
34976 31051 31050 1
34977 31050 31053 1
34978 31052 31051 un
34979 31051 31060 un
34980 31052 31057 un
34981 31054 31053 1
34982 31053 31105 1
34983 31053 31106 1
34984 31055 31054 un
34985 31054 31093 1
34986 31054 31107 1
34987 31056 31055 1
34988 31055 31092 1
34989 31055 31108 1
34990 31056 31109 1
34991 31056 31110 1
34992 31058 31057 un
34993 31057 31095 1
34994 31059 31058 un
34995 31058 31064 1
34996 31060 31059 un
34997 31059 31061 1
34998 31060 31094 1
34999 31062 31061 1
35000 31061 31097 2
35001 31063 31062 un
35002 31062 31068 un
35003 31064 31063 1
35004 31063 31065 1
35005 31064 31096 2
35006 31066 31065 1
35007 31065 31111 1
35008 31065 31112 1
35009 31067 31066 1
35010 31066 31113 1
35011 31066 31114 1
35012 31068 31067 un
35013 31067 31072 un
35014 31068 31069 un
35015 31070 31069 un
35016 31071 31070 un
35017 31070 31079 un
35018 31072 31071 un
35019 31071 31076 1
35020 31072 31073 1
35021 31074 31073 1
35022 31073 31115 1
35023 31073 31116 1
35024 31075 31074 1
35025 31074 31117 1
35026 31074 31118 1
35027 31076 31075 1
35028 31075 31119 1
35029 31075 31120 1
35030 31076 31077 1
35031 31076 31121 1
35032 31078 31077 1
35033 31077 31122 1
35034 31077 31123 1
35035 31079 31078 un
35036 31078 31083 un
35037 31079 31080 un
35038 31081 31080 un
35039 31080 31124 1
35040 31082 31081 un
35041 31081 31125 1
35042 31083 31082 un
35043 31082 31099 1
35044 31083 31098 1
35045 31084 31085 1
35046 31084 31126 1
35047 31084 31127 1
35048 31085 31128 1
35049 31085 31129 1
35050 31085 31130 1
35051 31086 31131 1
35052 31086 31132 1
35053 31086 31133 1
35054 31087 31134 1
35055 31087 31135 1
35056 31087 31136 1
35057 31088 31137 1
35058 31088 31138 1
35059 31088 31139 1
35060 31089 31140 1
35061 31089 31141 1
35062 31089 31142 1
35063 31090 31143 1
35064 31090 31144 1
35065 31090 31145 1
35066 31091 31146 1
35067 31092 31147 1
35068 31092 31148 1
35069 31092 31149 1
35070 31093 31150 1
35071 31093 31151 1
35072 31093 31152 1
35073 31094 31153 1
35074 31095 31154 1
35075 31098 31155 1
35076 31098 31156 1
35077 31098 31157 1
35078 31099 31158 1
35079 31099 31159 1
35080 31099 31160 1
35081 31161 31162 am
35082 31166 31161 am
35083 31161 31213 1
35084 31162 31163 am
35085 31162 31221 1
35086 31163 31164 am
35087 31163 31169 1
35088 31164 31165 am
35089 31164 31167 1
35090 31165 31166 am
35091 31165 31222 1
35092 31166 31214 1
35093 31167 31168 am
35094 31167 31173 am
35095 31168 31169 1
35096 31168 31170 am
35097 31169 31223 1
35098 31169 31224 1
35099 31170 31171 am
35100 31170 31183 am
35101 31171 31172 am
35102 31171 31180 am
35103 31172 31173 am
35104 31172 31177 1
35105 31173 31174 1
35106 31174 31175 1
35107 31174 31225 1
35108 31174 31226 1
35109 31175 31176 1
35110 31175 31227 1
35111 31175 31228 1
35112 31176 31177 1
35113 31176 31229 1
35114 31176 31230 1
35115 31177 31178 am
35116 31178 31179 am
35117 31178 31187 1
35118 31179 31180 am
35119 31179 31184 1
35120 31180 31181 am
35121 31181 31182 am
35122 31181 31201 am
35123 31182 31183 am
35124 31182 31199 1
35125 31183 31215 1
35126 31184 31185 1
35127 31184 31231 1
35128 31184 31260 1
35129 31185 31186 am
35130 31185 31191 am
35131 31186 31187 1
35132 31186 31188 am
35133 31187 31232 1
35134 31187 31261 1
35135 31188 31189 am
35136 31188 31219 1
35137 31189 31190 am
35138 31189 31195 1
35139 31190 31191 am
35140 31190 31192 1
35141 31191 31196 am
35142 31192 31193 1
35143 31192 31198 am
35144 31193 31194 1
35145 31193 31233 1
35146 31193 31234 1
35147 31194 31195 1
35148 31194 31235 1
35149 31194 31236 1
35150 31195 31237 1
35151 31195 31238 1
35152 31196 31197 am
35153 31196 31239 1
35154 31197 31198 am
35155 31197 31218 1
35156 31198 31240 1
35157 31199 31200 1
35158 31199 31241 1
35159 31199 31242 1
35160 31200 31201 am
35161 31200 31205 am
35162 31201 31202 am
35163 31202 31203 am
35164 31202 31243 1
35165 31203 31204 am
35166 31203 31212 am
35167 31204 31205 am
35168 31204 31209 am
35169 31205 31206 am
35170 31206 31207 am
35171 31206 31244 1
35172 31207 31208 am
35173 31207 31216 1
35174 31208 31209 am
35175 31208 31245 1
35176 31209 31210 am
35177 31210 31211 am
35178 31210 31220 1
35179 31211 31212 am
35180 31211 31246 1
35181 31212 31247 1
35182 31213 31248 1
35183 31214 31249 1
35184 31214 31250 1
35185 31214 31251 1
35186 31215 31252 1
35187 31216 31217 1
35188 31216 31253 1
35189 31216 31262 1
35190 31217 31254 1
35191 31217 31255 1
35192 31217 31256 1
35193 31218 31257 1
35194 31219 31258 1
35195 31220 31259 1
35196 31263 31264 am
35197 31268 31263 am
35198 31263 31315 1
35199 31264 31265 am
35200 31264 31323 1
35201 31265 31266 am
35202 31265 31271 1
35203 31266 31267 am
35204 31266 31269 1
35205 31267 31268 am
35206 31267 31324 1
35207 31268 31316 1
35208 31269 31270 am
35209 31269 31275 am
35210 31270 31271 1
35211 31270 31272 am
35212 31271 31325 1
35213 31271 31326 1
35214 31272 31273 am
35215 31272 31285 am
35216 31273 31274 am
35217 31273 31282 am
35218 31274 31275 am
35219 31274 31279 1
35220 31275 31276 1
35221 31276 31277 1
35222 31276 31327 1
35223 31276 31328 1
35224 31277 31278 1
35225 31277 31329 1
35226 31277 31330 1
35227 31278 31279 1
35228 31278 31331 1
35229 31278 31332 1
35230 31279 31280 am
35231 31280 31281 am
35232 31280 31289 1
35233 31281 31282 am
35234 31281 31286 1
35235 31282 31283 am
35236 31283 31284 am
35237 31283 31303 am
35238 31284 31285 am
35239 31284 31301 1
35240 31285 31317 1
35241 31286 31287 1
35242 31286 31333 1
35243 31286 31362 1
35244 31287 31288 am
35245 31287 31293 am
35246 31288 31289 1
35247 31288 31290 am
35248 31289 31334 1
35249 31289 31363 1
35250 31290 31291 am
35251 31290 31321 1
35252 31291 31292 am
35253 31291 31297 1
35254 31292 31293 am
35255 31292 31294 1
35256 31293 31298 am
35257 31294 31295 1
35258 31294 31300 am
35259 31295 31296 1
35260 31295 31335 1
35261 31295 31336 1
35262 31296 31297 1
35263 31296 31337 1
35264 31296 31338 1
35265 31297 31339 1
35266 31297 31340 1
35267 31298 31299 am
35268 31298 31341 1
35269 31299 31300 am
35270 31299 31320 1
35271 31300 31342 1
35272 31301 31302 1
35273 31301 31343 1
35274 31301 31344 1
35275 31302 31303 am
35276 31302 31307 am
35277 31303 31304 am
35278 31304 31305 am
35279 31304 31345 1
35280 31305 31306 am
35281 31305 31314 am
35282 31306 31307 am
35283 31306 31311 am
35284 31307 31308 am
35285 31308 31309 am
35286 31308 31346 1
35287 31309 31310 am
35288 31309 31318 1
35289 31310 31311 am
35290 31310 31347 1
35291 31311 31312 am
35292 31312 31313 am
35293 31312 31322 1
35294 31313 31314 am
35295 31313 31348 1
35296 31314 31349 1
35297 31315 31350 1
35298 31316 31351 1
35299 31316 31352 1
35300 31316 31353 1
35301 31317 31354 1
35302 31318 31319 1
35303 31318 31355 1
35304 31318 31364 1
35305 31319 31356 1
35306 31319 31357 1
35307 31319 31358 1
35308 31320 31359 1
35309 31321 31360 1
35310 31322 31361 1
35311 31365 31366 am
35312 31370 31365 am
35313 31365 31417 1
35314 31366 31367 am
35315 31366 31425 1
35316 31367 31368 am
35317 31367 31373 1
35318 31368 31369 am
35319 31368 31371 1
35320 31369 31370 am
35321 31369 31426 1
35322 31370 31418 1
35323 31371 31372 am
35324 31371 31377 am
35325 31372 31373 1
35326 31372 31374 am
35327 31373 31427 1
35328 31373 31428 1
35329 31374 31375 am
35330 31374 31387 am
35331 31375 31376 am
35332 31375 31384 am
35333 31376 31377 am
35334 31376 31381 1
35335 31377 31378 1
35336 31378 31379 1
35337 31378 31429 1
35338 31378 31430 1
35339 31379 31380 1
35340 31379 31431 1
35341 31379 31432 1
35342 31380 31381 1
35343 31380 31433 1
35344 31380 31434 1
35345 31381 31382 am
35346 31382 31383 am
35347 31382 31391 1
35348 31383 31384 am
35349 31383 31388 1
35350 31384 31385 am
35351 31385 31386 am
35352 31385 31405 am
35353 31386 31387 am
35354 31386 31403 1
35355 31387 31419 1
35356 31388 31389 1
35357 31388 31435 1
35358 31388 31464 1
35359 31389 31390 am
35360 31389 31395 am
35361 31390 31391 1
35362 31390 31392 am
35363 31391 31436 1
35364 31391 31465 1
35365 31392 31393 am
35366 31392 31423 1
35367 31393 31394 am
35368 31393 31399 1
35369 31394 31395 am
35370 31394 31396 1
35371 31395 31400 am
35372 31396 31397 1
35373 31396 31402 am
35374 31397 31398 1
35375 31397 31437 1
35376 31397 31438 1
35377 31398 31399 1
35378 31398 31439 1
35379 31398 31440 1
35380 31399 31441 1
35381 31399 31442 1
35382 31400 31401 am
35383 31400 31443 1
35384 31401 31402 am
35385 31401 31422 1
35386 31402 31444 1
35387 31403 31404 1
35388 31403 31445 1
35389 31403 31446 1
35390 31404 31405 am
35391 31404 31409 am
35392 31405 31406 am
35393 31406 31407 am
35394 31406 31447 1
35395 31407 31408 am
35396 31407 31416 am
35397 31408 31409 am
35398 31408 31413 am
35399 31409 31410 am
35400 31410 31411 am
35401 31410 31448 1
35402 31411 31412 am
35403 31411 31420 1
35404 31412 31413 am
35405 31412 31449 1
35406 31413 31414 am
35407 31414 31415 am
35408 31414 31424 1
35409 31415 31416 am
35410 31415 31450 1
35411 31416 31451 1
35412 31417 31452 1
35413 31418 31453 1
35414 31418 31454 1
35415 31418 31455 1
35416 31419 31456 1
35417 31420 31421 1
35418 31420 31457 1
35419 31420 31466 1
35420 31421 31458 1
35421 31421 31459 1
35422 31421 31460 1
35423 31422 31461 1
35424 31423 31462 1
35425 31424 31463 1
35426 31467 31468 am
35427 31472 31467 am
35428 31467 31519 1
35429 31468 31469 am
35430 31468 31527 1
35431 31469 31470 am
35432 31469 31475 1
35433 31470 31471 am
35434 31470 31473 1
35435 31471 31472 am
35436 31471 31528 1
35437 31472 31520 1
35438 31473 31474 am
35439 31473 31479 am
35440 31474 31475 1
35441 31474 31476 am
35442 31475 31529 1
35443 31475 31530 1
35444 31476 31477 am
35445 31476 31489 am
35446 31477 31478 am
35447 31477 31486 am
35448 31478 31479 am
35449 31478 31483 1
35450 31479 31480 1
35451 31480 31481 1
35452 31480 31531 1
35453 31480 31532 1
35454 31481 31482 1
35455 31481 31533 1
35456 31481 31534 1
35457 31482 31483 1
35458 31482 31535 1
35459 31482 31536 1
35460 31483 31484 am
35461 31484 31485 am
35462 31484 31493 1
35463 31485 31486 am
35464 31485 31490 1
35465 31486 31487 am
35466 31487 31488 am
35467 31487 31507 am
35468 31488 31489 am
35469 31488 31505 1
35470 31489 31521 1
35471 31490 31491 1
35472 31490 31537 1
35473 31490 31566 1
35474 31491 31492 am
35475 31491 31497 am
35476 31492 31493 1
35477 31492 31494 am
35478 31493 31538 1
35479 31493 31567 1
35480 31494 31495 am
35481 31494 31525 1
35482 31495 31496 am
35483 31495 31501 1
35484 31496 31497 am
35485 31496 31498 1
35486 31497 31502 am
35487 31498 31499 1
35488 31498 31504 am
35489 31499 31500 1
35490 31499 31539 1
35491 31499 31540 1
35492 31500 31501 1
35493 31500 31541 1
35494 31500 31542 1
35495 31501 31543 1
35496 31501 31544 1
35497 31502 31503 am
35498 31502 31545 1
35499 31503 31504 am
35500 31503 31524 1
35501 31504 31546 1
35502 31505 31506 1
35503 31505 31547 1
35504 31505 31548 1
35505 31506 31507 am
35506 31506 31511 am
35507 31507 31508 am
35508 31508 31509 am
35509 31508 31549 1
35510 31509 31510 am
35511 31509 31518 am
35512 31510 31511 am
35513 31510 31515 am
35514 31511 31512 am
35515 31512 31513 am
35516 31512 31550 1
35517 31513 31514 am
35518 31513 31522 1
35519 31514 31515 am
35520 31514 31551 1
35521 31515 31516 am
35522 31516 31517 am
35523 31516 31526 1
35524 31517 31518 am
35525 31517 31552 1
35526 31518 31553 1
35527 31519 31554 1
35528 31520 31555 1
35529 31520 31556 1
35530 31520 31557 1
35531 31521 31558 1
35532 31522 31523 1
35533 31522 31559 1
35534 31522 31568 1
35535 31523 31560 1
35536 31523 31561 1
35537 31523 31562 1
35538 31524 31563 1
35539 31525 31564 1
35540 31526 31565 1
35541 31569 31570 am
35542 31574 31569 am
35543 31569 31621 1
35544 31570 31571 am
35545 31570 31629 1
35546 31571 31572 am
35547 31571 31577 1
35548 31572 31573 am
35549 31572 31575 1
35550 31573 31574 am
35551 31573 31630 1
35552 31574 31622 1
35553 31575 31576 am
35554 31575 31581 am
35555 31576 31577 1
35556 31576 31578 am
35557 31577 31631 1
35558 31577 31632 1
35559 31578 31579 am
35560 31578 31591 am
35561 31579 31580 am
35562 31579 31588 am
35563 31580 31581 am
35564 31580 31585 1
35565 31581 31582 1
35566 31582 31583 1
35567 31582 31633 1
35568 31582 31634 1
35569 31583 31584 1
35570 31583 31635 1
35571 31583 31636 1
35572 31584 31585 1
35573 31584 31637 1
35574 31584 31638 1
35575 31585 31586 am
35576 31586 31587 am
35577 31586 31595 1
35578 31587 31588 am
35579 31587 31592 1
35580 31588 31589 am
35581 31589 31590 am
35582 31589 31609 am
35583 31590 31591 am
35584 31590 31607 1
35585 31591 31623 1
35586 31592 31593 1
35587 31592 31639 1
35588 31592 31668 1
35589 31593 31594 am
35590 31593 31599 am
35591 31594 31595 1
35592 31594 31596 am
35593 31595 31640 1
35594 31595 31669 1
35595 31596 31597 am
35596 31596 31627 1
35597 31597 31598 am
35598 31597 31603 1
35599 31598 31599 am
35600 31598 31600 1
35601 31599 31604 am
35602 31600 31601 1
35603 31600 31606 am
35604 31601 31602 1
35605 31601 31641 1
35606 31601 31642 1
35607 31602 31603 1
35608 31602 31643 1
35609 31602 31644 1
35610 31603 31645 1
35611 31603 31646 1
35612 31604 31605 am
35613 31604 31647 1
35614 31605 31606 am
35615 31605 31626 1
35616 31606 31648 1
35617 31607 31608 1
35618 31607 31649 1
35619 31607 31650 1
35620 31608 31609 am
35621 31608 31613 am
35622 31609 31610 am
35623 31610 31611 am
35624 31610 31651 1
35625 31611 31612 am
35626 31611 31620 am
35627 31612 31613 am
35628 31612 31617 am
35629 31613 31614 am
35630 31614 31615 am
35631 31614 31652 1
35632 31615 31616 am
35633 31615 31624 1
35634 31616 31617 am
35635 31616 31653 1
35636 31617 31618 am
35637 31618 31619 am
35638 31618 31628 1
35639 31619 31620 am
35640 31619 31654 1
35641 31620 31655 1
35642 31621 31656 1
35643 31622 31657 1
35644 31622 31658 1
35645 31622 31659 1
35646 31623 31660 1
35647 31624 31625 1
35648 31624 31661 1
35649 31624 31670 1
35650 31625 31662 1
35651 31625 31663 1
35652 31625 31664 1
35653 31626 31665 1
35654 31627 31666 1
35655 31628 31667 1
35656 31671 31672 am
35657 31676 31671 am
35658 31671 31723 1
35659 31672 31673 am
35660 31672 31731 1
35661 31673 31674 am
35662 31673 31679 1
35663 31674 31675 am
35664 31674 31677 1
35665 31675 31676 am
35666 31675 31732 1
35667 31676 31724 1
35668 31677 31678 am
35669 31677 31683 am
35670 31678 31679 1
35671 31678 31680 am
35672 31679 31733 1
35673 31679 31734 1
35674 31680 31681 am
35675 31680 31693 am
35676 31681 31682 am
35677 31681 31690 am
35678 31682 31683 am
35679 31682 31687 1
35680 31683 31684 1
35681 31684 31685 1
35682 31684 31735 1
35683 31684 31736 1
35684 31685 31686 1
35685 31685 31737 1
35686 31685 31738 1
35687 31686 31687 1
35688 31686 31739 1
35689 31686 31740 1
35690 31687 31688 am
35691 31688 31689 am
35692 31688 31697 1
35693 31689 31690 am
35694 31689 31694 1
35695 31690 31691 am
35696 31691 31692 am
35697 31691 31711 am
35698 31692 31693 am
35699 31692 31709 1
35700 31693 31725 1
35701 31694 31695 1
35702 31694 31741 1
35703 31694 31770 1
35704 31695 31696 am
35705 31695 31701 am
35706 31696 31697 1
35707 31696 31698 am
35708 31697 31742 1
35709 31697 31771 1
35710 31698 31699 am
35711 31698 31729 1
35712 31699 31700 am
35713 31699 31705 1
35714 31700 31701 am
35715 31700 31702 1
35716 31701 31706 am
35717 31702 31703 1
35718 31702 31708 am
35719 31703 31704 1
35720 31703 31743 1
35721 31703 31744 1
35722 31704 31705 1
35723 31704 31745 1
35724 31704 31746 1
35725 31705 31747 1
35726 31705 31748 1
35727 31706 31707 am
35728 31706 31749 1
35729 31707 31708 am
35730 31707 31728 1
35731 31708 31750 1
35732 31709 31710 1
35733 31709 31751 1
35734 31709 31752 1
35735 31710 31711 am
35736 31710 31715 am
35737 31711 31712 am
35738 31712 31713 am
35739 31712 31753 1
35740 31713 31714 am
35741 31713 31722 am
35742 31714 31715 am
35743 31714 31719 am
35744 31715 31716 am
35745 31716 31717 am
35746 31716 31754 1
35747 31717 31718 am
35748 31717 31726 1
35749 31718 31719 am
35750 31718 31755 1
35751 31719 31720 am
35752 31720 31721 am
35753 31720 31730 1
35754 31721 31722 am
35755 31721 31756 1
35756 31722 31757 1
35757 31723 31758 1
35758 31724 31759 1
35759 31724 31760 1
35760 31724 31761 1
35761 31725 31762 1
35762 31726 31727 1
35763 31726 31763 1
35764 31726 31772 1
35765 31727 31764 1
35766 31727 31765 1
35767 31727 31766 1
35768 31728 31767 1
35769 31729 31768 1
35770 31730 31769 1
35771 31773 31774 am
35772 31778 31773 am
35773 31773 31825 1
35774 31774 31775 am
35775 31774 31833 1
35776 31775 31776 am
35777 31775 31781 1
35778 31776 31777 am
35779 31776 31779 1
35780 31777 31778 am
35781 31777 31834 1
35782 31778 31826 1
35783 31779 31780 am
35784 31779 31785 am
35785 31780 31781 1
35786 31780 31782 am
35787 31781 31835 1
35788 31781 31836 1
35789 31782 31783 am
35790 31782 31795 am
35791 31783 31784 am
35792 31783 31792 am
35793 31784 31785 am
35794 31784 31789 1
35795 31785 31786 1
35796 31786 31787 1
35797 31786 31837 1
35798 31786 31838 1
35799 31787 31788 1
35800 31787 31839 1
35801 31787 31840 1
35802 31788 31789 1
35803 31788 31841 1
35804 31788 31842 1
35805 31789 31790 am
35806 31790 31791 am
35807 31790 31799 1
35808 31791 31792 am
35809 31791 31796 1
35810 31792 31793 am
35811 31793 31794 am
35812 31793 31813 am
35813 31794 31795 am
35814 31794 31811 1
35815 31795 31827 1
35816 31796 31797 1
35817 31796 31843 1
35818 31796 31872 1
35819 31797 31798 am
35820 31797 31803 am
35821 31798 31799 1
35822 31798 31800 am
35823 31799 31844 1
35824 31799 31873 1
35825 31800 31801 am
35826 31800 31831 1
35827 31801 31802 am
35828 31801 31807 1
35829 31802 31803 am
35830 31802 31804 1
35831 31803 31808 am
35832 31804 31805 1
35833 31804 31810 am
35834 31805 31806 1
35835 31805 31845 1
35836 31805 31846 1
35837 31806 31807 1
35838 31806 31847 1
35839 31806 31848 1
35840 31807 31849 1
35841 31807 31850 1
35842 31808 31809 am
35843 31808 31851 1
35844 31809 31810 am
35845 31809 31830 1
35846 31810 31852 1
35847 31811 31812 1
35848 31811 31853 1
35849 31811 31854 1
35850 31812 31813 am
35851 31812 31817 am
35852 31813 31814 am
35853 31814 31815 am
35854 31814 31855 1
35855 31815 31816 am
35856 31815 31824 am
35857 31816 31817 am
35858 31816 31821 am
35859 31817 31818 am
35860 31818 31819 am
35861 31818 31856 1
35862 31819 31820 am
35863 31819 31828 1
35864 31820 31821 am
35865 31820 31857 1
35866 31821 31822 am
35867 31822 31823 am
35868 31822 31832 1
35869 31823 31824 am
35870 31823 31858 1
35871 31824 31859 1
35872 31825 31860 1
35873 31826 31861 1
35874 31826 31862 1
35875 31826 31863 1
35876 31827 31864 1
35877 31828 31829 1
35878 31828 31865 1
35879 31828 31874 1
35880 31829 31866 1
35881 31829 31867 1
35882 31829 31868 1
35883 31830 31869 1
35884 31831 31870 1
35885 31832 31871 1
35886 31875 31876 am
35887 31880 31875 am
35888 31875 31927 1
35889 31876 31877 am
35890 31876 31935 1
35891 31877 31878 am
35892 31877 31883 1
35893 31878 31879 am
35894 31878 31881 1
35895 31879 31880 am
35896 31879 31936 1
35897 31880 31928 1
35898 31881 31882 am
35899 31881 31887 am
35900 31882 31883 1
35901 31882 31884 am
35902 31883 31937 1
35903 31883 31938 1
35904 31884 31885 am
35905 31884 31897 am
35906 31885 31886 am
35907 31885 31894 am
35908 31886 31887 am
35909 31886 31891 1
35910 31887 31888 1
35911 31888 31889 1
35912 31888 31939 1
35913 31888 31940 1
35914 31889 31890 1
35915 31889 31941 1
35916 31889 31942 1
35917 31890 31891 1
35918 31890 31943 1
35919 31890 31944 1
35920 31891 31892 am
35921 31892 31893 am
35922 31892 31901 1
35923 31893 31894 am
35924 31893 31898 1
35925 31894 31895 am
35926 31895 31896 am
35927 31895 31915 am
35928 31896 31897 am
35929 31896 31913 1
35930 31897 31929 1
35931 31898 31899 1
35932 31898 31945 1
35933 31898 31974 1
35934 31899 31900 am
35935 31899 31905 am
35936 31900 31901 1
35937 31900 31902 am
35938 31901 31946 1
35939 31901 31975 1
35940 31902 31903 am
35941 31902 31933 1
35942 31903 31904 am
35943 31903 31909 1
35944 31904 31905 am
35945 31904 31906 1
35946 31905 31910 am
35947 31906 31907 1
35948 31906 31912 am
35949 31907 31908 1
35950 31907 31947 1
35951 31907 31948 1
35952 31908 31909 1
35953 31908 31949 1
35954 31908 31950 1
35955 31909 31951 1
35956 31909 31952 1
35957 31910 31911 am
35958 31910 31953 1
35959 31911 31912 am
35960 31911 31932 1
35961 31912 31954 1
35962 31913 31914 1
35963 31913 31955 1
35964 31913 31956 1
35965 31914 31915 am
35966 31914 31919 am
35967 31915 31916 am
35968 31916 31917 am
35969 31916 31957 1
35970 31917 31918 am
35971 31917 31926 am
35972 31918 31919 am
35973 31918 31923 am
35974 31919 31920 am
35975 31920 31921 am
35976 31920 31958 1
35977 31921 31922 am
35978 31921 31930 1
35979 31922 31923 am
35980 31922 31959 1
35981 31923 31924 am
35982 31924 31925 am
35983 31924 31934 1
35984 31925 31926 am
35985 31925 31960 1
35986 31926 31961 1
35987 31927 31962 1
35988 31928 31963 1
35989 31928 31964 1
35990 31928 31965 1
35991 31929 31966 1
35992 31930 31931 1
35993 31930 31967 1
35994 31930 31976 1
35995 31931 31968 1
35996 31931 31969 1
35997 31931 31970 1
35998 31932 31971 1
35999 31933 31972 1
36000 31934 31973 1
36001 31977 31978 am
36002 31982 31977 am
36003 31977 32029 1
36004 31978 31979 am
36005 31978 32037 1
36006 31979 31980 am
36007 31979 31985 1
36008 31980 31981 am
36009 31980 31983 1
36010 31981 31982 am
36011 31981 32038 1
36012 31982 32030 1
36013 31983 31984 am
36014 31983 31989 am
36015 31984 31985 1
36016 31984 31986 am
36017 31985 32039 1
36018 31985 32040 1
36019 31986 31987 am
36020 31986 31999 am
36021 31987 31988 am
36022 31987 31996 am
36023 31988 31989 am
36024 31988 31993 1
36025 31989 31990 1
36026 31990 31991 1
36027 31990 32041 1
36028 31990 32042 1
36029 31991 31992 1
36030 31991 32043 1
36031 31991 32044 1
36032 31992 31993 1
36033 31992 32045 1
36034 31992 32046 1
36035 31993 31994 am
36036 31994 31995 am
36037 31994 32003 1
36038 31995 31996 am
36039 31995 32000 1
36040 31996 31997 am
36041 31997 31998 am
36042 31997 32017 am
36043 31998 31999 am
36044 31998 32015 1
36045 31999 32031 1
36046 32000 32001 1
36047 32000 32047 1
36048 32000 32076 1
36049 32001 32002 am
36050 32001 32007 am
36051 32002 32003 1
36052 32002 32004 am
36053 32003 32048 1
36054 32003 32077 1
36055 32004 32005 am
36056 32004 32035 1
36057 32005 32006 am
36058 32005 32011 1
36059 32006 32007 am
36060 32006 32008 1
36061 32007 32012 am
36062 32008 32009 1
36063 32008 32014 am
36064 32009 32010 1
36065 32009 32049 1
36066 32009 32050 1
36067 32010 32011 1
36068 32010 32051 1
36069 32010 32052 1
36070 32011 32053 1
36071 32011 32054 1
36072 32012 32013 am
36073 32012 32055 1
36074 32013 32014 am
36075 32013 32034 1
36076 32014 32056 1
36077 32015 32016 1
36078 32015 32057 1
36079 32015 32058 1
36080 32016 32017 am
36081 32016 32021 am
36082 32017 32018 am
36083 32018 32019 am
36084 32018 32059 1
36085 32019 32020 am
36086 32019 32028 am
36087 32020 32021 am
36088 32020 32025 am
36089 32021 32022 am
36090 32022 32023 am
36091 32022 32060 1
36092 32023 32024 am
36093 32023 32032 1
36094 32024 32025 am
36095 32024 32061 1
36096 32025 32026 am
36097 32026 32027 am
36098 32026 32036 1
36099 32027 32028 am
36100 32027 32062 1
36101 32028 32063 1
36102 32029 32064 1
36103 32030 32065 1
36104 32030 32066 1
36105 32030 32067 1
36106 32031 32068 1
36107 32032 32033 1
36108 32032 32069 1
36109 32032 32078 1
36110 32033 32070 1
36111 32033 32071 1
36112 32033 32072 1
36113 32034 32073 1
36114 32035 32074 1
36115 32036 32075 1
36116 32079 32080 am
36117 32084 32079 am
36118 32079 32131 1
36119 32080 32081 am
36120 32080 32139 1
36121 32081 32082 am
36122 32081 32087 1
36123 32082 32083 am
36124 32082 32085 1
36125 32083 32084 am
36126 32083 32140 1
36127 32084 32132 1
36128 32085 32086 am
36129 32085 32091 am
36130 32086 32087 1
36131 32086 32088 am
36132 32087 32141 1
36133 32087 32142 1
36134 32088 32089 am
36135 32088 32101 am
36136 32089 32090 am
36137 32089 32098 am
36138 32090 32091 am
36139 32090 32095 1
36140 32091 32092 1
36141 32092 32093 1
36142 32092 32143 1
36143 32092 32144 1
36144 32093 32094 1
36145 32093 32145 1
36146 32093 32146 1
36147 32094 32095 1
36148 32094 32147 1
36149 32094 32148 1
36150 32095 32096 am
36151 32096 32097 am
36152 32096 32105 1
36153 32097 32098 am
36154 32097 32102 1
36155 32098 32099 am
36156 32099 32100 am
36157 32099 32119 am
36158 32100 32101 am
36159 32100 32117 1
36160 32101 32133 1
36161 32102 32103 1
36162 32102 32149 1
36163 32102 32178 1
36164 32103 32104 am
36165 32103 32109 am
36166 32104 32105 1
36167 32104 32106 am
36168 32105 32150 1
36169 32105 32179 1
36170 32106 32107 am
36171 32106 32137 1
36172 32107 32108 am
36173 32107 32113 1
36174 32108 32109 am
36175 32108 32110 1
36176 32109 32114 am
36177 32110 32111 1
36178 32110 32116 am
36179 32111 32112 1
36180 32111 32151 1
36181 32111 32152 1
36182 32112 32113 1
36183 32112 32153 1
36184 32112 32154 1
36185 32113 32155 1
36186 32113 32156 1
36187 32114 32115 am
36188 32114 32157 1
36189 32115 32116 am
36190 32115 32136 1
36191 32116 32158 1
36192 32117 32118 1
36193 32117 32159 1
36194 32117 32160 1
36195 32118 32119 am
36196 32118 32123 am
36197 32119 32120 am
36198 32120 32121 am
36199 32120 32161 1
36200 32121 32122 am
36201 32121 32130 am
36202 32122 32123 am
36203 32122 32127 am
36204 32123 32124 am
36205 32124 32125 am
36206 32124 32162 1
36207 32125 32126 am
36208 32125 32134 1
36209 32126 32127 am
36210 32126 32163 1
36211 32127 32128 am
36212 32128 32129 am
36213 32128 32138 1
36214 32129 32130 am
36215 32129 32164 1
36216 32130 32165 1
36217 32131 32166 1
36218 32132 32167 1
36219 32132 32168 1
36220 32132 32169 1
36221 32133 32170 1
36222 32134 32135 1
36223 32134 32171 1
36224 32134 32180 1
36225 32135 32172 1
36226 32135 32173 1
36227 32135 32174 1
36228 32136 32175 1
36229 32137 32176 1
36230 32138 32177 1
36231 32181 32182 am
36232 32186 32181 am
36233 32181 32233 1
36234 32182 32183 am
36235 32182 32241 1
36236 32183 32184 am
36237 32183 32189 1
36238 32184 32185 am
36239 32184 32187 1
36240 32185 32186 am
36241 32185 32242 1
36242 32186 32234 1
36243 32187 32188 am
36244 32187 32193 am
36245 32188 32189 1
36246 32188 32190 am
36247 32189 32243 1
36248 32189 32244 1
36249 32190 32191 am
36250 32190 32203 am
36251 32191 32192 am
36252 32191 32200 am
36253 32192 32193 am
36254 32192 32197 1
36255 32193 32194 1
36256 32194 32195 1
36257 32194 32245 1
36258 32194 32246 1
36259 32195 32196 1
36260 32195 32247 1
36261 32195 32248 1
36262 32196 32197 1
36263 32196 32249 1
36264 32196 32250 1
36265 32197 32198 am
36266 32198 32199 am
36267 32198 32207 1
36268 32199 32200 am
36269 32199 32204 1
36270 32200 32201 am
36271 32201 32202 am
36272 32201 32221 am
36273 32202 32203 am
36274 32202 32219 1
36275 32203 32235 1
36276 32204 32205 1
36277 32204 32251 1
36278 32204 32280 1
36279 32205 32206 am
36280 32205 32211 am
36281 32206 32207 1
36282 32206 32208 am
36283 32207 32252 1
36284 32207 32281 1
36285 32208 32209 am
36286 32208 32239 1
36287 32209 32210 am
36288 32209 32215 1
36289 32210 32211 am
36290 32210 32212 1
36291 32211 32216 am
36292 32212 32213 1
36293 32212 32218 am
36294 32213 32214 1
36295 32213 32253 1
36296 32213 32254 1
36297 32214 32215 1
36298 32214 32255 1
36299 32214 32256 1
36300 32215 32257 1
36301 32215 32258 1
36302 32216 32217 am
36303 32216 32259 1
36304 32217 32218 am
36305 32217 32238 1
36306 32218 32260 1
36307 32219 32220 1
36308 32219 32261 1
36309 32219 32262 1
36310 32220 32221 am
36311 32220 32225 am
36312 32221 32222 am
36313 32222 32223 am
36314 32222 32263 1
36315 32223 32224 am
36316 32223 32232 am
36317 32224 32225 am
36318 32224 32229 am
36319 32225 32226 am
36320 32226 32227 am
36321 32226 32264 1
36322 32227 32228 am
36323 32227 32236 1
36324 32228 32229 am
36325 32228 32265 1
36326 32229 32230 am
36327 32230 32231 am
36328 32230 32240 1
36329 32231 32232 am
36330 32231 32266 1
36331 32232 32267 1
36332 32233 32268 1
36333 32234 32269 1
36334 32234 32270 1
36335 32234 32271 1
36336 32235 32272 1
36337 32236 32237 1
36338 32236 32273 1
36339 32236 32282 1
36340 32237 32274 1
36341 32237 32275 1
36342 32237 32276 1
36343 32238 32277 1
36344 32239 32278 1
36345 32240 32279 1
36346 32283 32284 am
36347 32288 32283 am
36348 32283 32335 1
36349 32284 32285 am
36350 32284 32343 1
36351 32285 32286 am
36352 32285 32291 1
36353 32286 32287 am
36354 32286 32289 1
36355 32287 32288 am
36356 32287 32344 1
36357 32288 32336 1
36358 32289 32290 am
36359 32289 32295 am
36360 32290 32291 1
36361 32290 32292 am
36362 32291 32345 1
36363 32291 32346 1
36364 32292 32293 am
36365 32292 32305 am
36366 32293 32294 am
36367 32293 32302 am
36368 32294 32295 am
36369 32294 32299 1
36370 32295 32296 1
36371 32296 32297 1
36372 32296 32347 1
36373 32296 32348 1
36374 32297 32298 1
36375 32297 32349 1
36376 32297 32350 1
36377 32298 32299 1
36378 32298 32351 1
36379 32298 32352 1
36380 32299 32300 am
36381 32300 32301 am
36382 32300 32309 1
36383 32301 32302 am
36384 32301 32306 1
36385 32302 32303 am
36386 32303 32304 am
36387 32303 32323 am
36388 32304 32305 am
36389 32304 32321 1
36390 32305 32337 1
36391 32306 32307 1
36392 32306 32353 1
36393 32306 32382 1
36394 32307 32308 am
36395 32307 32313 am
36396 32308 32309 1
36397 32308 32310 am
36398 32309 32354 1
36399 32309 32383 1
36400 32310 32311 am
36401 32310 32341 1
36402 32311 32312 am
36403 32311 32317 1
36404 32312 32313 am
36405 32312 32314 1
36406 32313 32318 am
36407 32314 32315 1
36408 32314 32320 am
36409 32315 32316 1
36410 32315 32355 1
36411 32315 32356 1
36412 32316 32317 1
36413 32316 32357 1
36414 32316 32358 1
36415 32317 32359 1
36416 32317 32360 1
36417 32318 32319 am
36418 32318 32361 1
36419 32319 32320 am
36420 32319 32340 1
36421 32320 32362 1
36422 32321 32322 1
36423 32321 32363 1
36424 32321 32364 1
36425 32322 32323 am
36426 32322 32327 am
36427 32323 32324 am
36428 32324 32325 am
36429 32324 32365 1
36430 32325 32326 am
36431 32325 32334 am
36432 32326 32327 am
36433 32326 32331 am
36434 32327 32328 am
36435 32328 32329 am
36436 32328 32366 1
36437 32329 32330 am
36438 32329 32338 1
36439 32330 32331 am
36440 32330 32367 1
36441 32331 32332 am
36442 32332 32333 am
36443 32332 32342 1
36444 32333 32334 am
36445 32333 32368 1
36446 32334 32369 1
36447 32335 32370 1
36448 32336 32371 1
36449 32336 32372 1
36450 32336 32373 1
36451 32337 32374 1
36452 32338 32339 1
36453 32338 32375 1
36454 32338 32384 1
36455 32339 32376 1
36456 32339 32377 1
36457 32339 32378 1
36458 32340 32379 1
36459 32341 32380 1
36460 32342 32381 1
36461 32385 32386 am
36462 32390 32385 am
36463 32385 32437 1
36464 32386 32387 am
36465 32386 32445 1
36466 32387 32388 am
36467 32387 32393 1
36468 32388 32389 am
36469 32388 32391 1
36470 32389 32390 am
36471 32389 32446 1
36472 32390 32438 1
36473 32391 32392 am
36474 32391 32397 am
36475 32392 32393 1
36476 32392 32394 am
36477 32393 32447 1
36478 32393 32448 1
36479 32394 32395 am
36480 32394 32407 am
36481 32395 32396 am
36482 32395 32404 am
36483 32396 32397 am
36484 32396 32401 1
36485 32397 32398 1
36486 32398 32399 1
36487 32398 32449 1
36488 32398 32450 1
36489 32399 32400 1
36490 32399 32451 1
36491 32399 32452 1
36492 32400 32401 1
36493 32400 32453 1
36494 32400 32454 1
36495 32401 32402 am
36496 32402 32403 am
36497 32402 32411 1
36498 32403 32404 am
36499 32403 32408 1
36500 32404 32405 am
36501 32405 32406 am
36502 32405 32425 am
36503 32406 32407 am
36504 32406 32423 1
36505 32407 32439 1
36506 32408 32409 1
36507 32408 32455 1
36508 32408 32484 1
36509 32409 32410 am
36510 32409 32415 am
36511 32410 32411 1
36512 32410 32412 am
36513 32411 32456 1
36514 32411 32485 1
36515 32412 32413 am
36516 32412 32443 1
36517 32413 32414 am
36518 32413 32419 1
36519 32414 32415 am
36520 32414 32416 1
36521 32415 32420 am
36522 32416 32417 1
36523 32416 32422 am
36524 32417 32418 1
36525 32417 32457 1
36526 32417 32458 1
36527 32418 32419 1
36528 32418 32459 1
36529 32418 32460 1
36530 32419 32461 1
36531 32419 32462 1
36532 32420 32421 am
36533 32420 32463 1
36534 32421 32422 am
36535 32421 32442 1
36536 32422 32464 1
36537 32423 32424 1
36538 32423 32465 1
36539 32423 32466 1
36540 32424 32425 am
36541 32424 32429 am
36542 32425 32426 am
36543 32426 32427 am
36544 32426 32467 1
36545 32427 32428 am
36546 32427 32436 am
36547 32428 32429 am
36548 32428 32433 am
36549 32429 32430 am
36550 32430 32431 am
36551 32430 32468 1
36552 32431 32432 am
36553 32431 32440 1
36554 32432 32433 am
36555 32432 32469 1
36556 32433 32434 am
36557 32434 32435 am
36558 32434 32444 1
36559 32435 32436 am
36560 32435 32470 1
36561 32436 32471 1
36562 32437 32472 1
36563 32438 32473 1
36564 32438 32474 1
36565 32438 32475 1
36566 32439 32476 1
36567 32440 32441 1
36568 32440 32477 1
36569 32440 32486 1
36570 32441 32478 1
36571 32441 32479 1
36572 32441 32480 1
36573 32442 32481 1
36574 32443 32482 1
36575 32444 32483 1
36576 32487 32488 am
36577 32492 32487 am
36578 32487 32539 1
36579 32488 32489 am
36580 32488 32547 1
36581 32489 32490 am
36582 32489 32495 1
36583 32490 32491 am
36584 32490 32493 1
36585 32491 32492 am
36586 32491 32548 1
36587 32492 32540 1
36588 32493 32494 am
36589 32493 32499 am
36590 32494 32495 1
36591 32494 32496 am
36592 32495 32549 1
36593 32495 32550 1
36594 32496 32497 am
36595 32496 32509 am
36596 32497 32498 am
36597 32497 32506 am
36598 32498 32499 am
36599 32498 32503 1
36600 32499 32500 1
36601 32500 32501 1
36602 32500 32551 1
36603 32500 32552 1
36604 32501 32502 1
36605 32501 32553 1
36606 32501 32554 1
36607 32502 32503 1
36608 32502 32555 1
36609 32502 32556 1
36610 32503 32504 am
36611 32504 32505 am
36612 32504 32513 1
36613 32505 32506 am
36614 32505 32510 1
36615 32506 32507 am
36616 32507 32508 am
36617 32507 32527 am
36618 32508 32509 am
36619 32508 32525 1
36620 32509 32541 1
36621 32510 32511 1
36622 32510 32557 1
36623 32510 32586 1
36624 32511 32512 am
36625 32511 32517 am
36626 32512 32513 1
36627 32512 32514 am
36628 32513 32558 1
36629 32513 32587 1
36630 32514 32515 am
36631 32514 32545 1
36632 32515 32516 am
36633 32515 32521 1
36634 32516 32517 am
36635 32516 32518 1
36636 32517 32522 am
36637 32518 32519 1
36638 32518 32524 am
36639 32519 32520 1
36640 32519 32559 1
36641 32519 32560 1
36642 32520 32521 1
36643 32520 32561 1
36644 32520 32562 1
36645 32521 32563 1
36646 32521 32564 1
36647 32522 32523 am
36648 32522 32565 1
36649 32523 32524 am
36650 32523 32544 1
36651 32524 32566 1
36652 32525 32526 1
36653 32525 32567 1
36654 32525 32568 1
36655 32526 32527 am
36656 32526 32531 am
36657 32527 32528 am
36658 32528 32529 am
36659 32528 32569 1
36660 32529 32530 am
36661 32529 32538 am
36662 32530 32531 am
36663 32530 32535 am
36664 32531 32532 am
36665 32532 32533 am
36666 32532 32570 1
36667 32533 32534 am
36668 32533 32542 1
36669 32534 32535 am
36670 32534 32571 1
36671 32535 32536 am
36672 32536 32537 am
36673 32536 32546 1
36674 32537 32538 am
36675 32537 32572 1
36676 32538 32573 1
36677 32539 32574 1
36678 32540 32575 1
36679 32540 32576 1
36680 32540 32577 1
36681 32541 32578 1
36682 32542 32543 1
36683 32542 32579 1
36684 32542 32588 1
36685 32543 32580 1
36686 32543 32581 1
36687 32543 32582 1
36688 32544 32583 1
36689 32545 32584 1
36690 32546 32585 1
36691 32589 32590 am
36692 32594 32589 am
36693 32589 32641 1
36694 32590 32591 am
36695 32590 32649 1
36696 32591 32592 am
36697 32591 32597 1
36698 32592 32593 am
36699 32592 32595 1
36700 32593 32594 am
36701 32593 32650 1
36702 32594 32642 1
36703 32595 32596 am
36704 32595 32601 am
36705 32596 32597 1
36706 32596 32598 am
36707 32597 32651 1
36708 32597 32652 1
36709 32598 32599 am
36710 32598 32611 am
36711 32599 32600 am
36712 32599 32608 am
36713 32600 32601 am
36714 32600 32605 1
36715 32601 32602 1
36716 32602 32603 1
36717 32602 32653 1
36718 32602 32654 1
36719 32603 32604 1
36720 32603 32655 1
36721 32603 32656 1
36722 32604 32605 1
36723 32604 32657 1
36724 32604 32658 1
36725 32605 32606 am
36726 32606 32607 am
36727 32606 32615 1
36728 32607 32608 am
36729 32607 32612 1
36730 32608 32609 am
36731 32609 32610 am
36732 32609 32629 am
36733 32610 32611 am
36734 32610 32627 1
36735 32611 32643 1
36736 32612 32613 1
36737 32612 32659 1
36738 32612 32688 1
36739 32613 32614 am
36740 32613 32619 am
36741 32614 32615 1
36742 32614 32616 am
36743 32615 32660 1
36744 32615 32689 1
36745 32616 32617 am
36746 32616 32647 1
36747 32617 32618 am
36748 32617 32623 1
36749 32618 32619 am
36750 32618 32620 1
36751 32619 32624 am
36752 32620 32621 1
36753 32620 32626 am
36754 32621 32622 1
36755 32621 32661 1
36756 32621 32662 1
36757 32622 32623 1
36758 32622 32663 1
36759 32622 32664 1
36760 32623 32665 1
36761 32623 32666 1
36762 32624 32625 am
36763 32624 32667 1
36764 32625 32626 am
36765 32625 32646 1
36766 32626 32668 1
36767 32627 32628 1
36768 32627 32669 1
36769 32627 32670 1
36770 32628 32629 am
36771 32628 32633 am
36772 32629 32630 am
36773 32630 32631 am
36774 32630 32671 1
36775 32631 32632 am
36776 32631 32640 am
36777 32632 32633 am
36778 32632 32637 am
36779 32633 32634 am
36780 32634 32635 am
36781 32634 32672 1
36782 32635 32636 am
36783 32635 32644 1
36784 32636 32637 am
36785 32636 32673 1
36786 32637 32638 am
36787 32638 32639 am
36788 32638 32648 1
36789 32639 32640 am
36790 32639 32674 1
36791 32640 32675 1
36792 32641 32676 1
36793 32642 32677 1
36794 32642 32678 1
36795 32642 32679 1
36796 32643 32680 1
36797 32644 32645 1
36798 32644 32681 1
36799 32644 32690 1
36800 32645 32682 1
36801 32645 32683 1
36802 32645 32684 1
36803 32646 32685 1
36804 32647 32686 1
36805 32648 32687 1
36806 32691 32692 am
36807 32696 32691 am
36808 32691 32743 1
36809 32692 32693 am
36810 32692 32751 1
36811 32693 32694 am
36812 32693 32699 1
36813 32694 32695 am
36814 32694 32697 1
36815 32695 32696 am
36816 32695 32752 1
36817 32696 32744 1
36818 32697 32698 am
36819 32697 32703 am
36820 32698 32699 1
36821 32698 32700 am
36822 32699 32753 1
36823 32699 32754 1
36824 32700 32701 am
36825 32700 32713 am
36826 32701 32702 am
36827 32701 32710 am
36828 32702 32703 am
36829 32702 32707 1
36830 32703 32704 1
36831 32704 32705 1
36832 32704 32755 1
36833 32704 32756 1
36834 32705 32706 1
36835 32705 32757 1
36836 32705 32758 1
36837 32706 32707 1
36838 32706 32759 1
36839 32706 32760 1
36840 32707 32708 am
36841 32708 32709 am
36842 32708 32717 1
36843 32709 32710 am
36844 32709 32714 1
36845 32710 32711 am
36846 32711 32712 am
36847 32711 32731 am
36848 32712 32713 am
36849 32712 32729 1
36850 32713 32745 1
36851 32714 32715 1
36852 32714 32761 1
36853 32714 32790 1
36854 32715 32716 am
36855 32715 32721 am
36856 32716 32717 1
36857 32716 32718 am
36858 32717 32762 1
36859 32717 32791 1
36860 32718 32719 am
36861 32718 32749 1
36862 32719 32720 am
36863 32719 32725 1
36864 32720 32721 am
36865 32720 32722 1
36866 32721 32726 am
36867 32722 32723 1
36868 32722 32728 am
36869 32723 32724 1
36870 32723 32763 1
36871 32723 32764 1
36872 32724 32725 1
36873 32724 32765 1
36874 32724 32766 1
36875 32725 32767 1
36876 32725 32768 1
36877 32726 32727 am
36878 32726 32769 1
36879 32727 32728 am
36880 32727 32748 1
36881 32728 32770 1
36882 32729 32730 1
36883 32729 32771 1
36884 32729 32772 1
36885 32730 32731 am
36886 32730 32735 am
36887 32731 32732 am
36888 32732 32733 am
36889 32732 32773 1
36890 32733 32734 am
36891 32733 32742 am
36892 32734 32735 am
36893 32734 32739 am
36894 32735 32736 am
36895 32736 32737 am
36896 32736 32774 1
36897 32737 32738 am
36898 32737 32746 1
36899 32738 32739 am
36900 32738 32775 1
36901 32739 32740 am
36902 32740 32741 am
36903 32740 32750 1
36904 32741 32742 am
36905 32741 32776 1
36906 32742 32777 1
36907 32743 32778 1
36908 32744 32779 1
36909 32744 32780 1
36910 32744 32781 1
36911 32745 32782 1
36912 32746 32747 1
36913 32746 32783 1
36914 32746 32792 1
36915 32747 32784 1
36916 32747 32785 1
36917 32747 32786 1
36918 32748 32787 1
36919 32749 32788 1
36920 32750 32789 1
36921 32793 32794 am
36922 32798 32793 am
36923 32793 32845 1
36924 32794 32795 am
36925 32794 32853 1
36926 32795 32796 am
36927 32795 32801 1
36928 32796 32797 am
36929 32796 32799 1
36930 32797 32798 am
36931 32797 32854 1
36932 32798 32846 1
36933 32799 32800 am
36934 32799 32805 am
36935 32800 32801 1
36936 32800 32802 am
36937 32801 32855 1
36938 32801 32856 1
36939 32802 32803 am
36940 32802 32815 am
36941 32803 32804 am
36942 32803 32812 am
36943 32804 32805 am
36944 32804 32809 1
36945 32805 32806 1
36946 32806 32807 1
36947 32806 32857 1
36948 32806 32858 1
36949 32807 32808 1
36950 32807 32859 1
36951 32807 32860 1
36952 32808 32809 1
36953 32808 32861 1
36954 32808 32862 1
36955 32809 32810 am
36956 32810 32811 am
36957 32810 32819 1
36958 32811 32812 am
36959 32811 32816 1
36960 32812 32813 am
36961 32813 32814 am
36962 32813 32833 am
36963 32814 32815 am
36964 32814 32831 1
36965 32815 32847 1
36966 32816 32817 1
36967 32816 32863 1
36968 32816 32892 1
36969 32817 32818 am
36970 32817 32823 am
36971 32818 32819 1
36972 32818 32820 am
36973 32819 32864 1
36974 32819 32893 1
36975 32820 32821 am
36976 32820 32851 1
36977 32821 32822 am
36978 32821 32827 1
36979 32822 32823 am
36980 32822 32824 1
36981 32823 32828 am
36982 32824 32825 1
36983 32824 32830 am
36984 32825 32826 1
36985 32825 32865 1
36986 32825 32866 1
36987 32826 32827 1
36988 32826 32867 1
36989 32826 32868 1
36990 32827 32869 1
36991 32827 32870 1
36992 32828 32829 am
36993 32828 32871 1
36994 32829 32830 am
36995 32829 32850 1
36996 32830 32872 1
36997 32831 32832 1
36998 32831 32873 1
36999 32831 32874 1
37000 32832 32833 am
37001 32832 32837 am
37002 32833 32834 am
37003 32834 32835 am
37004 32834 32875 1
37005 32835 32836 am
37006 32835 32844 am
37007 32836 32837 am
37008 32836 32841 am
37009 32837 32838 am
37010 32838 32839 am
37011 32838 32876 1
37012 32839 32840 am
37013 32839 32848 1
37014 32840 32841 am
37015 32840 32877 1
37016 32841 32842 am
37017 32842 32843 am
37018 32842 32852 1
37019 32843 32844 am
37020 32843 32878 1
37021 32844 32879 1
37022 32845 32880 1
37023 32846 32881 1
37024 32846 32882 1
37025 32846 32883 1
37026 32847 32884 1
37027 32848 32849 1
37028 32848 32885 1
37029 32848 32894 1
37030 32849 32886 1
37031 32849 32887 1
37032 32849 32888 1
37033 32850 32889 1
37034 32851 32890 1
37035 32852 32891 1
37036 32895 32896 am
37037 32900 32895 am
37038 32895 32947 1
37039 32896 32897 am
37040 32896 32955 1
37041 32897 32898 am
37042 32897 32903 1
37043 32898 32899 am
37044 32898 32901 1
37045 32899 32900 am
37046 32899 32956 1
37047 32900 32948 1
37048 32901 32902 am
37049 32901 32907 am
37050 32902 32903 1
37051 32902 32904 am
37052 32903 32957 1
37053 32903 32958 1
37054 32904 32905 am
37055 32904 32917 am
37056 32905 32906 am
37057 32905 32914 am
37058 32906 32907 am
37059 32906 32911 1
37060 32907 32908 1
37061 32908 32909 1
37062 32908 32959 1
37063 32908 32960 1
37064 32909 32910 1
37065 32909 32961 1
37066 32909 32962 1
37067 32910 32911 1
37068 32910 32963 1
37069 32910 32964 1
37070 32911 32912 am
37071 32912 32913 am
37072 32912 32921 1
37073 32913 32914 am
37074 32913 32918 1
37075 32914 32915 am
37076 32915 32916 am
37077 32915 32935 am
37078 32916 32917 am
37079 32916 32933 1
37080 32917 32949 1
37081 32918 32919 1
37082 32918 32965 1
37083 32918 32994 1
37084 32919 32920 am
37085 32919 32925 am
37086 32920 32921 1
37087 32920 32922 am
37088 32921 32966 1
37089 32921 32995 1
37090 32922 32923 am
37091 32922 32953 1
37092 32923 32924 am
37093 32923 32929 1
37094 32924 32925 am
37095 32924 32926 1
37096 32925 32930 am
37097 32926 32927 1
37098 32926 32932 am
37099 32927 32928 1
37100 32927 32967 1
37101 32927 32968 1
37102 32928 32929 1
37103 32928 32969 1
37104 32928 32970 1
37105 32929 32971 1
37106 32929 32972 1
37107 32930 32931 am
37108 32930 32973 1
37109 32931 32932 am
37110 32931 32952 1
37111 32932 32974 1
37112 32933 32934 1
37113 32933 32975 1
37114 32933 32976 1
37115 32934 32935 am
37116 32934 32939 am
37117 32935 32936 am
37118 32936 32937 am
37119 32936 32977 1
37120 32937 32938 am
37121 32937 32946 am
37122 32938 32939 am
37123 32938 32943 am
37124 32939 32940 am
37125 32940 32941 am
37126 32940 32978 1
37127 32941 32942 am
37128 32941 32950 1
37129 32942 32943 am
37130 32942 32979 1
37131 32943 32944 am
37132 32944 32945 am
37133 32944 32954 1
37134 32945 32946 am
37135 32945 32980 1
37136 32946 32981 1
37137 32947 32982 1
37138 32948 32983 1
37139 32948 32984 1
37140 32948 32985 1
37141 32949 32986 1
37142 32950 32951 1
37143 32950 32987 1
37144 32950 32996 1
37145 32951 32988 1
37146 32951 32989 1
37147 32951 32990 1
37148 32952 32991 1
37149 32953 32992 1
37150 32954 32993 1
37151 32997 32998 am
37152 33002 32997 am
37153 32997 33049 1
37154 32998 32999 am
37155 32998 33057 1
37156 32999 33000 am
37157 32999 33005 1
37158 33000 33001 am
37159 33000 33003 1
37160 33001 33002 am
37161 33001 33058 1
37162 33002 33050 1
37163 33003 33004 am
37164 33003 33009 am
37165 33004 33005 1
37166 33004 33006 am
37167 33005 33059 1
37168 33005 33060 1
37169 33006 33007 am
37170 33006 33019 am
37171 33007 33008 am
37172 33007 33016 am
37173 33008 33009 am
37174 33008 33013 1
37175 33009 33010 1
37176 33010 33011 1
37177 33010 33061 1
37178 33010 33062 1
37179 33011 33012 1
37180 33011 33063 1
37181 33011 33064 1
37182 33012 33013 1
37183 33012 33065 1
37184 33012 33066 1
37185 33013 33014 am
37186 33014 33015 am
37187 33014 33023 1
37188 33015 33016 am
37189 33015 33020 1
37190 33016 33017 am
37191 33017 33018 am
37192 33017 33037 am
37193 33018 33019 am
37194 33018 33035 1
37195 33019 33051 1
37196 33020 33021 1
37197 33020 33067 1
37198 33020 33096 1
37199 33021 33022 am
37200 33021 33027 am
37201 33022 33023 1
37202 33022 33024 am
37203 33023 33068 1
37204 33023 33097 1
37205 33024 33025 am
37206 33024 33055 1
37207 33025 33026 am
37208 33025 33031 1
37209 33026 33027 am
37210 33026 33028 1
37211 33027 33032 am
37212 33028 33029 1
37213 33028 33034 am
37214 33029 33030 1
37215 33029 33069 1
37216 33029 33070 1
37217 33030 33031 1
37218 33030 33071 1
37219 33030 33072 1
37220 33031 33073 1
37221 33031 33074 1
37222 33032 33033 am
37223 33032 33075 1
37224 33033 33034 am
37225 33033 33054 1
37226 33034 33076 1
37227 33035 33036 1
37228 33035 33077 1
37229 33035 33078 1
37230 33036 33037 am
37231 33036 33041 am
37232 33037 33038 am
37233 33038 33039 am
37234 33038 33079 1
37235 33039 33040 am
37236 33039 33048 am
37237 33040 33041 am
37238 33040 33045 am
37239 33041 33042 am
37240 33042 33043 am
37241 33042 33080 1
37242 33043 33044 am
37243 33043 33052 1
37244 33044 33045 am
37245 33044 33081 1
37246 33045 33046 am
37247 33046 33047 am
37248 33046 33056 1
37249 33047 33048 am
37250 33047 33082 1
37251 33048 33083 1
37252 33049 33084 1
37253 33050 33085 1
37254 33050 33086 1
37255 33050 33087 1
37256 33051 33088 1
37257 33052 33053 1
37258 33052 33089 1
37259 33052 33098 1
37260 33053 33090 1
37261 33053 33091 1
37262 33053 33092 1
37263 33054 33093 1
37264 33055 33094 1
37265 33056 33095 1
37266 33099 33100 am
37267 33104 33099 am
37268 33099 33151 1
37269 33100 33101 am
37270 33100 33159 1
37271 33101 33102 am
37272 33101 33107 1
37273 33102 33103 am
37274 33102 33105 1
37275 33103 33104 am
37276 33103 33160 1
37277 33104 33152 1
37278 33105 33106 am
37279 33105 33111 am
37280 33106 33107 1
37281 33106 33108 am
37282 33107 33161 1
37283 33107 33162 1
37284 33108 33109 am
37285 33108 33121 am
37286 33109 33110 am
37287 33109 33118 am
37288 33110 33111 am
37289 33110 33115 1
37290 33111 33112 1
37291 33112 33113 1
37292 33112 33163 1
37293 33112 33164 1
37294 33113 33114 1
37295 33113 33165 1
37296 33113 33166 1
37297 33114 33115 1
37298 33114 33167 1
37299 33114 33168 1
37300 33115 33116 am
37301 33116 33117 am
37302 33116 33125 1
37303 33117 33118 am
37304 33117 33122 1
37305 33118 33119 am
37306 33119 33120 am
37307 33119 33139 am
37308 33120 33121 am
37309 33120 33137 1
37310 33121 33153 1
37311 33122 33123 1
37312 33122 33169 1
37313 33122 33198 1
37314 33123 33124 am
37315 33123 33129 am
37316 33124 33125 1
37317 33124 33126 am
37318 33125 33170 1
37319 33125 33199 1
37320 33126 33127 am
37321 33126 33157 1
37322 33127 33128 am
37323 33127 33133 1
37324 33128 33129 am
37325 33128 33130 1
37326 33129 33134 am
37327 33130 33131 1
37328 33130 33136 am
37329 33131 33132 1
37330 33131 33171 1
37331 33131 33172 1
37332 33132 33133 1
37333 33132 33173 1
37334 33132 33174 1
37335 33133 33175 1
37336 33133 33176 1
37337 33134 33135 am
37338 33134 33177 1
37339 33135 33136 am
37340 33135 33156 1
37341 33136 33178 1
37342 33137 33138 1
37343 33137 33179 1
37344 33137 33180 1
37345 33138 33139 am
37346 33138 33143 am
37347 33139 33140 am
37348 33140 33141 am
37349 33140 33181 1
37350 33141 33142 am
37351 33141 33150 am
37352 33142 33143 am
37353 33142 33147 am
37354 33143 33144 am
37355 33144 33145 am
37356 33144 33182 1
37357 33145 33146 am
37358 33145 33154 1
37359 33146 33147 am
37360 33146 33183 1
37361 33147 33148 am
37362 33148 33149 am
37363 33148 33158 1
37364 33149 33150 am
37365 33149 33184 1
37366 33150 33185 1
37367 33151 33186 1
37368 33152 33187 1
37369 33152 33188 1
37370 33152 33189 1
37371 33153 33190 1
37372 33154 33155 1
37373 33154 33191 1
37374 33154 33200 1
37375 33155 33192 1
37376 33155 33193 1
37377 33155 33194 1
37378 33156 33195 1
37379 33157 33196 1
37380 33158 33197 1
37381 33201 33202 1
37382 33201 33206 1
37383 33201 33348 1
37384 33201 33349 1
37385 33203 33202 1
37386 33202 33350 1
37387 33202 33351 1
37388 33204 33203 1
37389 33203 33210 1
37390 33203 33352 1
37391 33205 33204 1
37392 33204 33207 1
37393 33204 33353 1
37394 33206 33205 1
37395 33205 33354 1
37396 33205 33355 1
37397 33208 33207 1
37398 33207 33214 1
37399 33207 33356 1
37400 33209 33208 1
37401 33208 33211 1
37402 33208 33357 1
37403 33210 33209 1
37404 33209 33358 1
37405 33209 33359 1
37406 33210 33360 1
37407 33210 33361 1
37408 33212 33211 1
37409 33213 33212 1
37410 33212 33218 1
37411 33212 33362 1
37412 33214 33213 1
37413 33213 33215 1
37414 33213 33363 1
37415 33214 33364 1
37416 33214 33365 1
37417 33216 33215 1
37418 33215 33225 2
37419 33217 33216 1
37420 33216 33222 1
37421 33218 33217 1
37422 33217 33219 1
37423 33218 33230 1
37424 33218 33366 1
37425 33220 33219 1
37426 33219 33232 1
37427 33221 33220 1
37428 33220 33229 1
37429 33222 33221 1
37430 33221 33226 1
37431 33222 33223 1
37432 33224 33223 1
37433 33223 33367 1
37434 33223 33368 1
37435 33225 33224 1
37436 33224 33369 1
37437 33224 33370 1
37438 33225 33371 1
37439 33227 33226 1
37440 33228 33227 1
37441 33227 33263 1
37442 33229 33228 1
37443 33228 33247 1
37444 33229 33245 1
37445 33231 33230 1
37446 33230 33236 2
37447 33232 33231 1
37448 33231 33233 1
37449 33231 33372 1
37450 33232 33246 1
37451 33234 33233 2
37452 33233 33240 1
37453 33235 33234 1
37454 33234 33237 1
37455 33236 33235 1
37456 33235 33373 1
37457 33235 33374 1
37458 33236 33375 1
37459 33238 33237 1
37460 33237 33376 1
37461 33237 33377 1
37462 33239 33238 1
37463 33238 33378 1
37464 33238 33379 1
37465 33240 33239 2
37466 33239 33244 1
37467 33240 33241 1
37468 33242 33241 1
37469 33241 33380 1
37470 33241 33381 1
37471 33243 33242 1
37472 33242 33317 1
37473 33242 33382 1
37474 33244 33243 1
37475 33243 33383 1
37476 33243 33384 1
37477 33244 33385 1
37478 33244 33386 1
37479 33246 33245 1
37480 33245 33249 1
37481 33246 33387 1
37482 33248 33247 1
37483 33247 33253 1
37484 33249 33248 1
37485 33248 33250 1
37486 33251 33250 1
37487 33250 33388 1
37488 33252 33251 1
37489 33251 33257 1
37490 33253 33252 1
37491 33252 33254 1
37492 33253 33262 1
37493 33255 33254 1
37494 33254 33264 1
37495 33256 33255 1
37496 33255 33261 1
37497 33257 33256 1
37498 33256 33258 1
37499 33257 33389 1
37500 33259 33258 1
37501 33258 33274 1
37502 33260 33259 1
37503 33259 33271 1
37504 33261 33260 1
37505 33260 33268 1
37506 33261 33266 1
37507 33263 33262 1
37508 33262 33265 1
37509 33263 33390 1
37510 33265 33264 1
37511 33264 33267 1
37512 33265 33283 1
37513 33267 33266 1
37514 33266 33270 1
37515 33267 33285 1
37516 33269 33268 1
37517 33268 33301 1
37518 33270 33269 1
37519 33269 33296 1
37520 33270 33294 1
37521 33272 33271 1
37522 33273 33272 1
37523 33272 33278 1
37524 33272 33391 1
37525 33274 33273 1
37526 33273 33275 1
37527 33273 33392 1
37528 33274 33320 1
37529 33274 33393 1
37530 33276 33275 1
37531 33275 33394 1
37532 33275 33395 1
37533 33277 33276 1
37534 33276 33396 1
37535 33276 33397 1
37536 33278 33277 1
37537 33277 33282 1
37538 33277 33398 1
37539 33278 33279 1
37540 33278 33399 1
37541 33280 33279 1
37542 33279 33400 1
37543 33279 33401 1
37544 33281 33280 1
37545 33280 33402 1
37546 33280 33403 1
37547 33282 33281 1
37548 33281 33404 1
37549 33281 33405 1
37550 33282 33406 1
37551 33284 33283 1
37552 33283 33289 1
37553 33285 33284 1
37554 33284 33286 1
37555 33285 33295 1
37556 33287 33286 1
37557 33288 33287 1
37558 33287 33293 1
37559 33287 33407 1
37560 33289 33288 1
37561 33288 33290 1
37562 33288 33408 1
37563 33291 33290 1
37564 33290 33409 1
37565 33290 33410 1
37566 33292 33291 1
37567 33291 33411 1
37568 33291 33412 1
37569 33293 33292 1
37570 33292 33413 1
37571 33292 33414 1
37572 33293 33415 1
37573 33293 33416 1
37574 33295 33294 1
37575 33294 33298 1
37576 33295 33417 1
37577 33297 33296 1
37578 33296 33299 1
37579 33298 33297 1
37580 33297 33302 1
37581 33298 33418 1
37582 33300 33299 1
37583 33299 33304 1
37584 33301 33300 1
37585 33300 33305 1
37586 33301 33419 1
37587 33303 33302 1
37588 33304 33303 1
37589 33303 33314 1
37590 33304 33307 1
37591 33306 33305 1
37592 33305 33311 1
37593 33305 33420 1
37594 33307 33306 1
37595 33306 33308 1
37596 33306 33421 1
37597 33307 33312 1
37598 33309 33308 1
37599 33308 33315 1
37600 33308 33422 1
37601 33310 33309 1
37602 33309 33423 1
37603 33309 33424 1
37604 33311 33310 1
37605 33310 33425 1
37606 33310 33426 1
37607 33311 33427 1
37608 33311 33428 1
37609 33313 33312 1
37610 33312 33316 1
37611 33314 33313 1
37612 33313 33324 1
37613 33314 33321 1
37614 33315 33316 1
37615 33315 33339 1
37616 33316 33335 1
37617 33317 33318 1
37618 33317 33319 1
37619 33317 33429 1
37620 33318 33430 1
37621 33318 33431 1
37622 33318 33432 1
37623 33319 33433 1
37624 33319 33434 1
37625 33319 33435 1
37626 33320 33436 1
37627 33322 33321 1
37628 33321 33437 1
37629 33323 33322 1
37630 33322 33438 1
37631 33324 33323 1
37632 33323 33328 1
37633 33324 33325 1
37634 33326 33325 1
37635 33325 33335 1
37636 33327 33326 1
37637 33326 33332 1
37638 33328 33327 1
37639 33327 33329 1
37640 33328 33439 1
37641 33330 33329 1
37642 33329 33440 1
37643 33331 33330 1
37644 33330 33441 1
37645 33332 33331 1
37646 33331 33338 1
37647 33332 33333 1
37648 33334 33333 1
37649 33333 33336 1
37650 33335 33334 1
37651 33334 33340 1
37652 33337 33336 1
37653 33336 33341 1
37654 33338 33337 1
37655 33337 33442 1
37656 33338 33443 1
37657 33340 33339 1
37658 33339 33444 1
37659 33340 33342 1
37660 33342 33341 1
37661 33341 33346 1
37662 33342 33343 1
37663 33344 33343 1
37664 33343 33445 1
37665 33343 33446 1
37666 33345 33344 1
37667 33344 33447 1
37668 33344 33448 1
37669 33346 33345 1
37670 33345 33449 1
37671 33345 33450 1
37672 33346 33347 2
37673 33451 33452 1
37674 33451 33456 1
37675 33451 33598 1
37676 33451 33599 1
37677 33453 33452 1
37678 33452 33600 1
37679 33452 33601 1
37680 33454 33453 1
37681 33453 33460 1
37682 33453 33602 1
37683 33455 33454 1
37684 33454 33457 1
37685 33454 33603 1
37686 33456 33455 1
37687 33455 33604 1
37688 33455 33605 1
37689 33458 33457 1
37690 33457 33464 1
37691 33457 33606 1
37692 33459 33458 1
37693 33458 33461 1
37694 33458 33607 1
37695 33460 33459 1
37696 33459 33608 1
37697 33459 33609 1
37698 33460 33610 1
37699 33460 33611 1
37700 33462 33461 1
37701 33463 33462 1
37702 33462 33468 1
37703 33462 33612 1
37704 33464 33463 1
37705 33463 33465 1
37706 33463 33613 1
37707 33464 33614 1
37708 33464 33615 1
37709 33466 33465 1
37710 33465 33475 2
37711 33467 33466 1
37712 33466 33472 1
37713 33468 33467 1
37714 33467 33469 1
37715 33468 33480 1
37716 33468 33616 1
37717 33470 33469 1
37718 33469 33482 1
37719 33471 33470 1
37720 33470 33479 1
37721 33472 33471 1
37722 33471 33476 1
37723 33472 33473 1
37724 33474 33473 1
37725 33473 33617 1
37726 33473 33618 1
37727 33475 33474 1
37728 33474 33619 1
37729 33474 33620 1
37730 33475 33621 1
37731 33477 33476 1
37732 33478 33477 1
37733 33477 33513 1
37734 33479 33478 1
37735 33478 33497 1
37736 33479 33495 1
37737 33481 33480 1
37738 33480 33486 2
37739 33482 33481 1
37740 33481 33483 1
37741 33481 33622 1
37742 33482 33496 1
37743 33484 33483 2
37744 33483 33490 1
37745 33485 33484 1
37746 33484 33487 1
37747 33486 33485 1
37748 33485 33623 1
37749 33485 33624 1
37750 33486 33625 1
37751 33488 33487 1
37752 33487 33626 1
37753 33487 33627 1
37754 33489 33488 1
37755 33488 33628 1
37756 33488 33629 1
37757 33490 33489 2
37758 33489 33494 1
37759 33490 33491 1
37760 33492 33491 1
37761 33491 33630 1
37762 33491 33631 1
37763 33493 33492 1
37764 33492 33567 1
37765 33492 33632 1
37766 33494 33493 1
37767 33493 33633 1
37768 33493 33634 1
37769 33494 33635 1
37770 33494 33636 1
37771 33496 33495 1
37772 33495 33499 1
37773 33496 33637 1
37774 33498 33497 1
37775 33497 33503 1
37776 33499 33498 1
37777 33498 33500 1
37778 33501 33500 1
37779 33500 33638 1
37780 33502 33501 1
37781 33501 33507 1
37782 33503 33502 1
37783 33502 33504 1
37784 33503 33512 1
37785 33505 33504 1
37786 33504 33514 1
37787 33506 33505 1
37788 33505 33511 1
37789 33507 33506 1
37790 33506 33508 1
37791 33507 33639 1
37792 33509 33508 1
37793 33508 33524 1
37794 33510 33509 1
37795 33509 33521 1
37796 33511 33510 1
37797 33510 33518 1
37798 33511 33516 1
37799 33513 33512 1
37800 33512 33515 1
37801 33513 33640 1
37802 33515 33514 1
37803 33514 33517 1
37804 33515 33533 1
37805 33517 33516 1
37806 33516 33520 1
37807 33517 33535 1
37808 33519 33518 1
37809 33518 33551 1
37810 33520 33519 1
37811 33519 33546 1
37812 33520 33544 1
37813 33522 33521 1
37814 33523 33522 1
37815 33522 33528 1
37816 33522 33641 1
37817 33524 33523 1
37818 33523 33525 1
37819 33523 33642 1
37820 33524 33570 1
37821 33524 33643 1
37822 33526 33525 1
37823 33525 33644 1
37824 33525 33645 1
37825 33527 33526 1
37826 33526 33646 1
37827 33526 33647 1
37828 33528 33527 1
37829 33527 33532 1
37830 33527 33648 1
37831 33528 33529 1
37832 33528 33649 1
37833 33530 33529 1
37834 33529 33650 1
37835 33529 33651 1
37836 33531 33530 1
37837 33530 33652 1
37838 33530 33653 1
37839 33532 33531 1
37840 33531 33654 1
37841 33531 33655 1
37842 33532 33656 1
37843 33534 33533 1
37844 33533 33539 1
37845 33535 33534 1
37846 33534 33536 1
37847 33535 33545 1
37848 33537 33536 1
37849 33538 33537 1
37850 33537 33543 1
37851 33537 33657 1
37852 33539 33538 1
37853 33538 33540 1
37854 33538 33658 1
37855 33541 33540 1
37856 33540 33659 1
37857 33540 33660 1
37858 33542 33541 1
37859 33541 33661 1
37860 33541 33662 1
37861 33543 33542 1
37862 33542 33663 1
37863 33542 33664 1
37864 33543 33665 1
37865 33543 33666 1
37866 33545 33544 1
37867 33544 33548 1
37868 33545 33667 1
37869 33547 33546 1
37870 33546 33549 1
37871 33548 33547 1
37872 33547 33552 1
37873 33548 33668 1
37874 33550 33549 1
37875 33549 33554 1
37876 33551 33550 1
37877 33550 33555 1
37878 33551 33669 1
37879 33553 33552 1
37880 33554 33553 1
37881 33553 33564 1
37882 33554 33557 1
37883 33556 33555 1
37884 33555 33561 1
37885 33555 33670 1
37886 33557 33556 1
37887 33556 33558 1
37888 33556 33671 1
37889 33557 33562 1
37890 33559 33558 1
37891 33558 33565 1
37892 33558 33672 1
37893 33560 33559 1
37894 33559 33673 1
37895 33559 33674 1
37896 33561 33560 1
37897 33560 33675 1
37898 33560 33676 1
37899 33561 33677 1
37900 33561 33678 1
37901 33563 33562 1
37902 33562 33566 1
37903 33564 33563 1
37904 33563 33574 1
37905 33564 33571 1
37906 33565 33566 1
37907 33565 33589 1
37908 33566 33585 1
37909 33567 33568 1
37910 33567 33569 1
37911 33567 33679 1
37912 33568 33680 1
37913 33568 33681 1
37914 33568 33682 1
37915 33569 33683 1
37916 33569 33684 1
37917 33569 33685 1
37918 33570 33686 1
37919 33572 33571 1
37920 33571 33687 1
37921 33573 33572 1
37922 33572 33688 1
37923 33574 33573 1
37924 33573 33578 1
37925 33574 33575 1
37926 33576 33575 1
37927 33575 33585 1
37928 33577 33576 1
37929 33576 33582 1
37930 33578 33577 1
37931 33577 33579 1
37932 33578 33689 1
37933 33580 33579 1
37934 33579 33690 1
37935 33581 33580 1
37936 33580 33691 1
37937 33582 33581 1
37938 33581 33588 1
37939 33582 33583 1
37940 33584 33583 1
37941 33583 33586 1
37942 33585 33584 1
37943 33584 33590 1
37944 33587 33586 1
37945 33586 33591 1
37946 33588 33587 1
37947 33587 33692 1
37948 33588 33693 1
37949 33590 33589 1
37950 33589 33694 1
37951 33590 33592 1
37952 33592 33591 1
37953 33591 33596 1
37954 33592 33593 1
37955 33594 33593 1
37956 33593 33695 1
37957 33593 33696 1
37958 33595 33594 1
37959 33594 33697 1
37960 33594 33698 1
37961 33596 33595 1
37962 33595 33699 1
37963 33595 33700 1
37964 33596 33597 2
37965 33701 33702 1
37966 33701 33706 1
37967 33701 33848 1
37968 33701 33849 1
37969 33703 33702 1
37970 33702 33850 1
37971 33702 33851 1
37972 33704 33703 1
37973 33703 33710 1
37974 33703 33852 1
37975 33705 33704 1
37976 33704 33707 1
37977 33704 33853 1
37978 33706 33705 1
37979 33705 33854 1
37980 33705 33855 1
37981 33708 33707 1
37982 33707 33714 1
37983 33707 33856 1
37984 33709 33708 1
37985 33708 33711 1
37986 33708 33857 1
37987 33710 33709 1
37988 33709 33858 1
37989 33709 33859 1
37990 33710 33860 1
37991 33710 33861 1
37992 33712 33711 1
37993 33713 33712 1
37994 33712 33718 1
37995 33712 33862 1
37996 33714 33713 1
37997 33713 33715 1
37998 33713 33863 1
37999 33714 33864 1
38000 33714 33865 1
38001 33716 33715 1
38002 33715 33725 2
38003 33717 33716 1
38004 33716 33722 1
38005 33718 33717 1
38006 33717 33719 1
38007 33718 33730 1
38008 33718 33866 1
38009 33720 33719 1
38010 33719 33732 1
38011 33721 33720 1
38012 33720 33729 1
38013 33722 33721 1
38014 33721 33726 1
38015 33722 33723 1
38016 33724 33723 1
38017 33723 33867 1
38018 33723 33868 1
38019 33725 33724 1
38020 33724 33869 1
38021 33724 33870 1
38022 33725 33871 1
38023 33727 33726 1
38024 33728 33727 1
38025 33727 33763 1
38026 33729 33728 1
38027 33728 33747 1
38028 33729 33745 1
38029 33731 33730 1
38030 33730 33736 2
38031 33732 33731 1
38032 33731 33733 1
38033 33731 33872 1
38034 33732 33746 1
38035 33734 33733 2
38036 33733 33740 1
38037 33735 33734 1
38038 33734 33737 1
38039 33736 33735 1
38040 33735 33873 1
38041 33735 33874 1
38042 33736 33875 1
38043 33738 33737 1
38044 33737 33876 1
38045 33737 33877 1
38046 33739 33738 1
38047 33738 33878 1
38048 33738 33879 1
38049 33740 33739 2
38050 33739 33744 1
38051 33740 33741 1
38052 33742 33741 1
38053 33741 33880 1
38054 33741 33881 1
38055 33743 33742 1
38056 33742 33817 1
38057 33742 33882 1
38058 33744 33743 1
38059 33743 33883 1
38060 33743 33884 1
38061 33744 33885 1
38062 33744 33886 1
38063 33746 33745 1
38064 33745 33749 1
38065 33746 33887 1
38066 33748 33747 1
38067 33747 33753 1
38068 33749 33748 1
38069 33748 33750 1
38070 33751 33750 1
38071 33750 33888 1
38072 33752 33751 1
38073 33751 33757 1
38074 33753 33752 1
38075 33752 33754 1
38076 33753 33762 1
38077 33755 33754 1
38078 33754 33764 1
38079 33756 33755 1
38080 33755 33761 1
38081 33757 33756 1
38082 33756 33758 1
38083 33757 33889 1
38084 33759 33758 1
38085 33758 33774 1
38086 33760 33759 1
38087 33759 33771 1
38088 33761 33760 1
38089 33760 33768 1
38090 33761 33766 1
38091 33763 33762 1
38092 33762 33765 1
38093 33763 33890 1
38094 33765 33764 1
38095 33764 33767 1
38096 33765 33783 1
38097 33767 33766 1
38098 33766 33770 1
38099 33767 33785 1
38100 33769 33768 1
38101 33768 33801 1
38102 33770 33769 1
38103 33769 33796 1
38104 33770 33794 1
38105 33772 33771 1
38106 33773 33772 1
38107 33772 33778 1
38108 33772 33891 1
38109 33774 33773 1
38110 33773 33775 1
38111 33773 33892 1
38112 33774 33820 1
38113 33774 33893 1
38114 33776 33775 1
38115 33775 33894 1
38116 33775 33895 1
38117 33777 33776 1
38118 33776 33896 1
38119 33776 33897 1
38120 33778 33777 1
38121 33777 33782 1
38122 33777 33898 1
38123 33778 33779 1
38124 33778 33899 1
38125 33780 33779 1
38126 33779 33900 1
38127 33779 33901 1
38128 33781 33780 1
38129 33780 33902 1
38130 33780 33903 1
38131 33782 33781 1
38132 33781 33904 1
38133 33781 33905 1
38134 33782 33906 1
38135 33784 33783 1
38136 33783 33789 1
38137 33785 33784 1
38138 33784 33786 1
38139 33785 33795 1
38140 33787 33786 1
38141 33788 33787 1
38142 33787 33793 1
38143 33787 33907 1
38144 33789 33788 1
38145 33788 33790 1
38146 33788 33908 1
38147 33791 33790 1
38148 33790 33909 1
38149 33790 33910 1
38150 33792 33791 1
38151 33791 33911 1
38152 33791 33912 1
38153 33793 33792 1
38154 33792 33913 1
38155 33792 33914 1
38156 33793 33915 1
38157 33793 33916 1
38158 33795 33794 1
38159 33794 33798 1
38160 33795 33917 1
38161 33797 33796 1
38162 33796 33799 1
38163 33798 33797 1
38164 33797 33802 1
38165 33798 33918 1
38166 33800 33799 1
38167 33799 33804 1
38168 33801 33800 1
38169 33800 33805 1
38170 33801 33919 1
38171 33803 33802 1
38172 33804 33803 1
38173 33803 33814 1
38174 33804 33807 1
38175 33806 33805 1
38176 33805 33811 1
38177 33805 33920 1
38178 33807 33806 1
38179 33806 33808 1
38180 33806 33921 1
38181 33807 33812 1
38182 33809 33808 1
38183 33808 33815 1
38184 33808 33922 1
38185 33810 33809 1
38186 33809 33923 1
38187 33809 33924 1
38188 33811 33810 1
38189 33810 33925 1
38190 33810 33926 1
38191 33811 33927 1
38192 33811 33928 1
38193 33813 33812 1
38194 33812 33816 1
38195 33814 33813 1
38196 33813 33824 1
38197 33814 33821 1
38198 33815 33816 1
38199 33815 33839 1
38200 33816 33835 1
38201 33817 33818 1
38202 33817 33819 1
38203 33817 33929 1
38204 33818 33930 1
38205 33818 33931 1
38206 33818 33932 1
38207 33819 33933 1
38208 33819 33934 1
38209 33819 33935 1
38210 33820 33936 1
38211 33822 33821 1
38212 33821 33937 1
38213 33823 33822 1
38214 33822 33938 1
38215 33824 33823 1
38216 33823 33828 1
38217 33824 33825 1
38218 33826 33825 1
38219 33825 33835 1
38220 33827 33826 1
38221 33826 33832 1
38222 33828 33827 1
38223 33827 33829 1
38224 33828 33939 1
38225 33830 33829 1
38226 33829 33940 1
38227 33831 33830 1
38228 33830 33941 1
38229 33832 33831 1
38230 33831 33838 1
38231 33832 33833 1
38232 33834 33833 1
38233 33833 33836 1
38234 33835 33834 1
38235 33834 33840 1
38236 33837 33836 1
38237 33836 33841 1
38238 33838 33837 1
38239 33837 33942 1
38240 33838 33943 1
38241 33840 33839 1
38242 33839 33944 1
38243 33840 33842 1
38244 33842 33841 1
38245 33841 33846 1
38246 33842 33843 1
38247 33844 33843 1
38248 33843 33945 1
38249 33843 33946 1
38250 33845 33844 1
38251 33844 33947 1
38252 33844 33948 1
38253 33846 33845 1
38254 33845 33949 1
38255 33845 33950 1
38256 33846 33847 2
38257 33951 33952 1
38258 33951 33956 1
38259 33951 34098 1
38260 33951 34099 1
38261 33953 33952 1
38262 33952 34100 1
38263 33952 34101 1
38264 33954 33953 1
38265 33953 33960 1
38266 33953 34102 1
38267 33955 33954 1
38268 33954 33957 1
38269 33954 34103 1
38270 33956 33955 1
38271 33955 34104 1
38272 33955 34105 1
38273 33958 33957 1
38274 33957 33964 1
38275 33957 34106 1
38276 33959 33958 1
38277 33958 33961 1
38278 33958 34107 1
38279 33960 33959 1
38280 33959 34108 1
38281 33959 34109 1
38282 33960 34110 1
38283 33960 34111 1
38284 33962 33961 1
38285 33963 33962 1
38286 33962 33968 1
38287 33962 34112 1
38288 33964 33963 1
38289 33963 33965 1
38290 33963 34113 1
38291 33964 34114 1
38292 33964 34115 1
38293 33966 33965 1
38294 33965 33975 2
38295 33967 33966 1
38296 33966 33972 1
38297 33968 33967 1
38298 33967 33969 1
38299 33968 33980 1
38300 33968 34116 1
38301 33970 33969 1
38302 33969 33982 1
38303 33971 33970 1
38304 33970 33979 1
38305 33972 33971 1
38306 33971 33976 1
38307 33972 33973 1
38308 33974 33973 1
38309 33973 34117 1
38310 33973 34118 1
38311 33975 33974 1
38312 33974 34119 1
38313 33974 34120 1
38314 33975 34121 1
38315 33977 33976 1
38316 33978 33977 1
38317 33977 34013 1
38318 33979 33978 1
38319 33978 33997 1
38320 33979 33995 1
38321 33981 33980 1
38322 33980 33986 2
38323 33982 33981 1
38324 33981 33983 1
38325 33981 34122 1
38326 33982 33996 1
38327 33984 33983 2
38328 33983 33990 1
38329 33985 33984 1
38330 33984 33987 1
38331 33986 33985 1
38332 33985 34123 1
38333 33985 34124 1
38334 33986 34125 1
38335 33988 33987 1
38336 33987 34126 1
38337 33987 34127 1
38338 33989 33988 1
38339 33988 34128 1
38340 33988 34129 1
38341 33990 33989 2
38342 33989 33994 1
38343 33990 33991 1
38344 33992 33991 1
38345 33991 34130 1
38346 33991 34131 1
38347 33993 33992 1
38348 33992 34067 1
38349 33992 34132 1
38350 33994 33993 1
38351 33993 34133 1
38352 33993 34134 1
38353 33994 34135 1
38354 33994 34136 1
38355 33996 33995 1
38356 33995 33999 1
38357 33996 34137 1
38358 33998 33997 1
38359 33997 34003 1
38360 33999 33998 1
38361 33998 34000 1
38362 34001 34000 1
38363 34000 34138 1
38364 34002 34001 1
38365 34001 34007 1
38366 34003 34002 1
38367 34002 34004 1
38368 34003 34012 1
38369 34005 34004 1
38370 34004 34014 1
38371 34006 34005 1
38372 34005 34011 1
38373 34007 34006 1
38374 34006 34008 1
38375 34007 34139 1
38376 34009 34008 1
38377 34008 34024 1
38378 34010 34009 1
38379 34009 34021 1
38380 34011 34010 1
38381 34010 34018 1
38382 34011 34016 1
38383 34013 34012 1
38384 34012 34015 1
38385 34013 34140 1
38386 34015 34014 1
38387 34014 34017 1
38388 34015 34033 1
38389 34017 34016 1
38390 34016 34020 1
38391 34017 34035 1
38392 34019 34018 1
38393 34018 34051 1
38394 34020 34019 1
38395 34019 34046 1
38396 34020 34044 1
38397 34022 34021 1
38398 34023 34022 1
38399 34022 34028 1
38400 34022 34141 1
38401 34024 34023 1
38402 34023 34025 1
38403 34023 34142 1
38404 34024 34070 1
38405 34024 34143 1
38406 34026 34025 1
38407 34025 34144 1
38408 34025 34145 1
38409 34027 34026 1
38410 34026 34146 1
38411 34026 34147 1
38412 34028 34027 1
38413 34027 34032 1
38414 34027 34148 1
38415 34028 34029 1
38416 34028 34149 1
38417 34030 34029 1
38418 34029 34150 1
38419 34029 34151 1
38420 34031 34030 1
38421 34030 34152 1
38422 34030 34153 1
38423 34032 34031 1
38424 34031 34154 1
38425 34031 34155 1
38426 34032 34156 1
38427 34034 34033 1
38428 34033 34039 1
38429 34035 34034 1
38430 34034 34036 1
38431 34035 34045 1
38432 34037 34036 1
38433 34038 34037 1
38434 34037 34043 1
38435 34037 34157 1
38436 34039 34038 1
38437 34038 34040 1
38438 34038 34158 1
38439 34041 34040 1
38440 34040 34159 1
38441 34040 34160 1
38442 34042 34041 1
38443 34041 34161 1
38444 34041 34162 1
38445 34043 34042 1
38446 34042 34163 1
38447 34042 34164 1
38448 34043 34165 1
38449 34043 34166 1
38450 34045 34044 1
38451 34044 34048 1
38452 34045 34167 1
38453 34047 34046 1
38454 34046 34049 1
38455 34048 34047 1
38456 34047 34052 1
38457 34048 34168 1
38458 34050 34049 1
38459 34049 34054 1
38460 34051 34050 1
38461 34050 34055 1
38462 34051 34169 1
38463 34053 34052 1
38464 34054 34053 1
38465 34053 34064 1
38466 34054 34057 1
38467 34056 34055 1
38468 34055 34061 1
38469 34055 34170 1
38470 34057 34056 1
38471 34056 34058 1
38472 34056 34171 1
38473 34057 34062 1
38474 34059 34058 1
38475 34058 34065 1
38476 34058 34172 1
38477 34060 34059 1
38478 34059 34173 1
38479 34059 34174 1
38480 34061 34060 1
38481 34060 34175 1
38482 34060 34176 1
38483 34061 34177 1
38484 34061 34178 1
38485 34063 34062 1
38486 34062 34066 1
38487 34064 34063 1
38488 34063 34074 1
38489 34064 34071 1
38490 34065 34066 1
38491 34065 34089 1
38492 34066 34085 1
38493 34067 34068 1
38494 34067 34069 1
38495 34067 34179 1
38496 34068 34180 1
38497 34068 34181 1
38498 34068 34182 1
38499 34069 34183 1
38500 34069 34184 1
38501 34069 34185 1
38502 34070 34186 1
38503 34072 34071 1
38504 34071 34187 1
38505 34073 34072 1
38506 34072 34188 1
38507 34074 34073 1
38508 34073 34078 1
38509 34074 34075 1
38510 34076 34075 1
38511 34075 34085 1
38512 34077 34076 1
38513 34076 34082 1
38514 34078 34077 1
38515 34077 34079 1
38516 34078 34189 1
38517 34080 34079 1
38518 34079 34190 1
38519 34081 34080 1
38520 34080 34191 1
38521 34082 34081 1
38522 34081 34088 1
38523 34082 34083 1
38524 34084 34083 1
38525 34083 34086 1
38526 34085 34084 1
38527 34084 34090 1
38528 34087 34086 1
38529 34086 34091 1
38530 34088 34087 1
38531 34087 34192 1
38532 34088 34193 1
38533 34090 34089 1
38534 34089 34194 1
38535 34090 34092 1
38536 34092 34091 1
38537 34091 34096 1
38538 34092 34093 1
38539 34094 34093 1
38540 34093 34195 1
38541 34093 34196 1
38542 34095 34094 1
38543 34094 34197 1
38544 34094 34198 1
38545 34096 34095 1
38546 34095 34199 1
38547 34095 34200 1
38548 34096 34097 2
38549 34201 34202 1
38550 34201 34206 1
38551 34201 34348 1
38552 34201 34349 1
38553 34203 34202 1
38554 34202 34350 1
38555 34202 34351 1
38556 34204 34203 1
38557 34203 34210 1
38558 34203 34352 1
38559 34205 34204 1
38560 34204 34207 1
38561 34204 34353 1
38562 34206 34205 1
38563 34205 34354 1
38564 34205 34355 1
38565 34208 34207 1
38566 34207 34214 1
38567 34207 34356 1
38568 34209 34208 1
38569 34208 34211 1
38570 34208 34357 1
38571 34210 34209 1
38572 34209 34358 1
38573 34209 34359 1
38574 34210 34360 1
38575 34210 34361 1
38576 34212 34211 1
38577 34213 34212 1
38578 34212 34218 1
38579 34212 34362 1
38580 34214 34213 1
38581 34213 34215 1
38582 34213 34363 1
38583 34214 34364 1
38584 34214 34365 1
38585 34216 34215 1
38586 34215 34225 2
38587 34217 34216 1
38588 34216 34222 1
38589 34218 34217 1
38590 34217 34219 1
38591 34218 34230 1
38592 34218 34366 1
38593 34220 34219 1
38594 34219 34232 1
38595 34221 34220 1
38596 34220 34229 1
38597 34222 34221 1
38598 34221 34226 1
38599 34222 34223 1
38600 34224 34223 1
38601 34223 34367 1
38602 34223 34368 1
38603 34225 34224 1
38604 34224 34369 1
38605 34224 34370 1
38606 34225 34371 1
38607 34227 34226 1
38608 34228 34227 1
38609 34227 34263 1
38610 34229 34228 1
38611 34228 34247 1
38612 34229 34245 1
38613 34231 34230 1
38614 34230 34236 2
38615 34232 34231 1
38616 34231 34233 1
38617 34231 34372 1
38618 34232 34246 1
38619 34234 34233 2
38620 34233 34240 1
38621 34235 34234 1
38622 34234 34237 1
38623 34236 34235 1
38624 34235 34373 1
38625 34235 34374 1
38626 34236 34375 1
38627 34238 34237 1
38628 34237 34376 1
38629 34237 34377 1
38630 34239 34238 1
38631 34238 34378 1
38632 34238 34379 1
38633 34240 34239 2
38634 34239 34244 1
38635 34240 34241 1
38636 34242 34241 1
38637 34241 34380 1
38638 34241 34381 1
38639 34243 34242 1
38640 34242 34317 1
38641 34242 34382 1
38642 34244 34243 1
38643 34243 34383 1
38644 34243 34384 1
38645 34244 34385 1
38646 34244 34386 1
38647 34246 34245 1
38648 34245 34249 1
38649 34246 34387 1
38650 34248 34247 1
38651 34247 34253 1
38652 34249 34248 1
38653 34248 34250 1
38654 34251 34250 1
38655 34250 34388 1
38656 34252 34251 1
38657 34251 34257 1
38658 34253 34252 1
38659 34252 34254 1
38660 34253 34262 1
38661 34255 34254 1
38662 34254 34264 1
38663 34256 34255 1
38664 34255 34261 1
38665 34257 34256 1
38666 34256 34258 1
38667 34257 34389 1
38668 34259 34258 1
38669 34258 34274 1
38670 34260 34259 1
38671 34259 34271 1
38672 34261 34260 1
38673 34260 34268 1
38674 34261 34266 1
38675 34263 34262 1
38676 34262 34265 1
38677 34263 34390 1
38678 34265 34264 1
38679 34264 34267 1
38680 34265 34283 1
38681 34267 34266 1
38682 34266 34270 1
38683 34267 34285 1
38684 34269 34268 1
38685 34268 34301 1
38686 34270 34269 1
38687 34269 34296 1
38688 34270 34294 1
38689 34272 34271 1
38690 34273 34272 1
38691 34272 34278 1
38692 34272 34391 1
38693 34274 34273 1
38694 34273 34275 1
38695 34273 34392 1
38696 34274 34320 1
38697 34274 34393 1
38698 34276 34275 1
38699 34275 34394 1
38700 34275 34395 1
38701 34277 34276 1
38702 34276 34396 1
38703 34276 34397 1
38704 34278 34277 1
38705 34277 34282 1
38706 34277 34398 1
38707 34278 34279 1
38708 34278 34399 1
38709 34280 34279 1
38710 34279 34400 1
38711 34279 34401 1
38712 34281 34280 1
38713 34280 34402 1
38714 34280 34403 1
38715 34282 34281 1
38716 34281 34404 1
38717 34281 34405 1
38718 34282 34406 1
38719 34284 34283 1
38720 34283 34289 1
38721 34285 34284 1
38722 34284 34286 1
38723 34285 34295 1
38724 34287 34286 1
38725 34288 34287 1
38726 34287 34293 1
38727 34287 34407 1
38728 34289 34288 1
38729 34288 34290 1
38730 34288 34408 1
38731 34291 34290 1
38732 34290 34409 1
38733 34290 34410 1
38734 34292 34291 1
38735 34291 34411 1
38736 34291 34412 1
38737 34293 34292 1
38738 34292 34413 1
38739 34292 34414 1
38740 34293 34415 1
38741 34293 34416 1
38742 34295 34294 1
38743 34294 34298 1
38744 34295 34417 1
38745 34297 34296 1
38746 34296 34299 1
38747 34298 34297 1
38748 34297 34302 1
38749 34298 34418 1
38750 34300 34299 1
38751 34299 34304 1
38752 34301 34300 1
38753 34300 34305 1
38754 34301 34419 1
38755 34303 34302 1
38756 34304 34303 1
38757 34303 34314 1
38758 34304 34307 1
38759 34306 34305 1
38760 34305 34311 1
38761 34305 34420 1
38762 34307 34306 1
38763 34306 34308 1
38764 34306 34421 1
38765 34307 34312 1
38766 34309 34308 1
38767 34308 34315 1
38768 34308 34422 1
38769 34310 34309 1
38770 34309 34423 1
38771 34309 34424 1
38772 34311 34310 1
38773 34310 34425 1
38774 34310 34426 1
38775 34311 34427 1
38776 34311 34428 1
38777 34313 34312 1
38778 34312 34316 1
38779 34314 34313 1
38780 34313 34324 1
38781 34314 34321 1
38782 34315 34316 1
38783 34315 34339 1
38784 34316 34335 1
38785 34317 34318 1
38786 34317 34319 1
38787 34317 34429 1
38788 34318 34430 1
38789 34318 34431 1
38790 34318 34432 1
38791 34319 34433 1
38792 34319 34434 1
38793 34319 34435 1
38794 34320 34436 1
38795 34322 34321 1
38796 34321 34437 1
38797 34323 34322 1
38798 34322 34438 1
38799 34324 34323 1
38800 34323 34328 1
38801 34324 34325 1
38802 34326 34325 1
38803 34325 34335 1
38804 34327 34326 1
38805 34326 34332 1
38806 34328 34327 1
38807 34327 34329 1
38808 34328 34439 1
38809 34330 34329 1
38810 34329 34440 1
38811 34331 34330 1
38812 34330 34441 1
38813 34332 34331 1
38814 34331 34338 1
38815 34332 34333 1
38816 34334 34333 1
38817 34333 34336 1
38818 34335 34334 1
38819 34334 34340 1
38820 34337 34336 1
38821 34336 34341 1
38822 34338 34337 1
38823 34337 34442 1
38824 34338 34443 1
38825 34340 34339 1
38826 34339 34444 1
38827 34340 34342 1
38828 34342 34341 1
38829 34341 34346 1
38830 34342 34343 1
38831 34344 34343 1
38832 34343 34445 1
38833 34343 34446 1
38834 34345 34344 1
38835 34344 34447 1
38836 34344 34448 1
38837 34346 34345 1
38838 34345 34449 1
38839 34345 34450 1
38840 34346 34347 2
38841 34451 34452 1
38842 34451 34456 1
38843 34451 34598 1
38844 34451 34599 1
38845 34453 34452 1
38846 34452 34600 1
38847 34452 34601 1
38848 34454 34453 1
38849 34453 34460 1
38850 34453 34602 1
38851 34455 34454 1
38852 34454 34457 1
38853 34454 34603 1
38854 34456 34455 1
38855 34455 34604 1
38856 34455 34605 1
38857 34458 34457 1
38858 34457 34464 1
38859 34457 34606 1
38860 34459 34458 1
38861 34458 34461 1
38862 34458 34607 1
38863 34460 34459 1
38864 34459 34608 1
38865 34459 34609 1
38866 34460 34610 1
38867 34460 34611 1
38868 34462 34461 1
38869 34463 34462 1
38870 34462 34468 1
38871 34462 34612 1
38872 34464 34463 1
38873 34463 34465 1
38874 34463 34613 1
38875 34464 34614 1
38876 34464 34615 1
38877 34466 34465 1
38878 34465 34475 2
38879 34467 34466 1
38880 34466 34472 1
38881 34468 34467 1
38882 34467 34469 1
38883 34468 34480 1
38884 34468 34616 1
38885 34470 34469 1
38886 34469 34482 1
38887 34471 34470 1
38888 34470 34479 1
38889 34472 34471 1
38890 34471 34476 1
38891 34472 34473 1
38892 34474 34473 1
38893 34473 34617 1
38894 34473 34618 1
38895 34475 34474 1
38896 34474 34619 1
38897 34474 34620 1
38898 34475 34621 1
38899 34477 34476 1
38900 34478 34477 1
38901 34477 34513 1
38902 34479 34478 1
38903 34478 34497 1
38904 34479 34495 1
38905 34481 34480 1
38906 34480 34486 2
38907 34482 34481 1
38908 34481 34483 1
38909 34481 34622 1
38910 34482 34496 1
38911 34484 34483 2
38912 34483 34490 1
38913 34485 34484 1
38914 34484 34487 1
38915 34486 34485 1
38916 34485 34623 1
38917 34485 34624 1
38918 34486 34625 1
38919 34488 34487 1
38920 34487 34626 1
38921 34487 34627 1
38922 34489 34488 1
38923 34488 34628 1
38924 34488 34629 1
38925 34490 34489 2
38926 34489 34494 1
38927 34490 34491 1
38928 34492 34491 1
38929 34491 34630 1
38930 34491 34631 1
38931 34493 34492 1
38932 34492 34567 1
38933 34492 34632 1
38934 34494 34493 1
38935 34493 34633 1
38936 34493 34634 1
38937 34494 34635 1
38938 34494 34636 1
38939 34496 34495 1
38940 34495 34499 1
38941 34496 34637 1
38942 34498 34497 1
38943 34497 34503 1
38944 34499 34498 1
38945 34498 34500 1
38946 34501 34500 1
38947 34500 34638 1
38948 34502 34501 1
38949 34501 34507 1
38950 34503 34502 1
38951 34502 34504 1
38952 34503 34512 1
38953 34505 34504 1
38954 34504 34514 1
38955 34506 34505 1
38956 34505 34511 1
38957 34507 34506 1
38958 34506 34508 1
38959 34507 34639 1
38960 34509 34508 1
38961 34508 34524 1
38962 34510 34509 1
38963 34509 34521 1
38964 34511 34510 1
38965 34510 34518 1
38966 34511 34516 1
38967 34513 34512 1
38968 34512 34515 1
38969 34513 34640 1
38970 34515 34514 1
38971 34514 34517 1
38972 34515 34533 1
38973 34517 34516 1
38974 34516 34520 1
38975 34517 34535 1
38976 34519 34518 1
38977 34518 34551 1
38978 34520 34519 1
38979 34519 34546 1
38980 34520 34544 1
38981 34522 34521 1
38982 34523 34522 1
38983 34522 34528 1
38984 34522 34641 1
38985 34524 34523 1
38986 34523 34525 1
38987 34523 34642 1
38988 34524 34570 1
38989 34524 34643 1
38990 34526 34525 1
38991 34525 34644 1
38992 34525 34645 1
38993 34527 34526 1
38994 34526 34646 1
38995 34526 34647 1
38996 34528 34527 1
38997 34527 34532 1
38998 34527 34648 1
38999 34528 34529 1
39000 34528 34649 1
39001 34530 34529 1
39002 34529 34650 1
39003 34529 34651 1
39004 34531 34530 1
39005 34530 34652 1
39006 34530 34653 1
39007 34532 34531 1
39008 34531 34654 1
39009 34531 34655 1
39010 34532 34656 1
39011 34534 34533 1
39012 34533 34539 1
39013 34535 34534 1
39014 34534 34536 1
39015 34535 34545 1
39016 34537 34536 1
39017 34538 34537 1
39018 34537 34543 1
39019 34537 34657 1
39020 34539 34538 1
39021 34538 34540 1
39022 34538 34658 1
39023 34541 34540 1
39024 34540 34659 1
39025 34540 34660 1
39026 34542 34541 1
39027 34541 34661 1
39028 34541 34662 1
39029 34543 34542 1
39030 34542 34663 1
39031 34542 34664 1
39032 34543 34665 1
39033 34543 34666 1
39034 34545 34544 1
39035 34544 34548 1
39036 34545 34667 1
39037 34547 34546 1
39038 34546 34549 1
39039 34548 34547 1
39040 34547 34552 1
39041 34548 34668 1
39042 34550 34549 1
39043 34549 34554 1
39044 34551 34550 1
39045 34550 34555 1
39046 34551 34669 1
39047 34553 34552 1
39048 34554 34553 1
39049 34553 34564 1
39050 34554 34557 1
39051 34556 34555 1
39052 34555 34561 1
39053 34555 34670 1
39054 34557 34556 1
39055 34556 34558 1
39056 34556 34671 1
39057 34557 34562 1
39058 34559 34558 1
39059 34558 34565 1
39060 34558 34672 1
39061 34560 34559 1
39062 34559 34673 1
39063 34559 34674 1
39064 34561 34560 1
39065 34560 34675 1
39066 34560 34676 1
39067 34561 34677 1
39068 34561 34678 1
39069 34563 34562 1
39070 34562 34566 1
39071 34564 34563 1
39072 34563 34574 1
39073 34564 34571 1
39074 34565 34566 1
39075 34565 34589 1
39076 34566 34585 1
39077 34567 34568 1
39078 34567 34569 1
39079 34567 34679 1
39080 34568 34680 1
39081 34568 34681 1
39082 34568 34682 1
39083 34569 34683 1
39084 34569 34684 1
39085 34569 34685 1
39086 34570 34686 1
39087 34572 34571 1
39088 34571 34687 1
39089 34573 34572 1
39090 34572 34688 1
39091 34574 34573 1
39092 34573 34578 1
39093 34574 34575 1
39094 34576 34575 1
39095 34575 34585 1
39096 34577 34576 1
39097 34576 34582 1
39098 34578 34577 1
39099 34577 34579 1
39100 34578 34689 1
39101 34580 34579 1
39102 34579 34690 1
39103 34581 34580 1
39104 34580 34691 1
39105 34582 34581 1
39106 34581 34588 1
39107 34582 34583 1
39108 34584 34583 1
39109 34583 34586 1
39110 34585 34584 1
39111 34584 34590 1
39112 34587 34586 1
39113 34586 34591 1
39114 34588 34587 1
39115 34587 34692 1
39116 34588 34693 1
39117 34590 34589 1
39118 34589 34694 1
39119 34590 34592 1
39120 34592 34591 1
39121 34591 34596 1
39122 34592 34593 1
39123 34594 34593 1
39124 34593 34695 1
39125 34593 34696 1
39126 34595 34594 1
39127 34594 34697 1
39128 34594 34698 1
39129 34596 34595 1
39130 34595 34699 1
39131 34595 34700 1
39132 34596 34597 2
39133 34701 34702 1
39134 34701 34706 1
39135 34701 34848 1
39136 34701 34849 1
39137 34703 34702 1
39138 34702 34850 1
39139 34702 34851 1
39140 34704 34703 1
39141 34703 34710 1
39142 34703 34852 1
39143 34705 34704 1
39144 34704 34707 1
39145 34704 34853 1
39146 34706 34705 1
39147 34705 34854 1
39148 34705 34855 1
39149 34708 34707 1
39150 34707 34714 1
39151 34707 34856 1
39152 34709 34708 1
39153 34708 34711 1
39154 34708 34857 1
39155 34710 34709 1
39156 34709 34858 1
39157 34709 34859 1
39158 34710 34860 1
39159 34710 34861 1
39160 34712 34711 1
39161 34713 34712 1
39162 34712 34718 1
39163 34712 34862 1
39164 34714 34713 1
39165 34713 34715 1
39166 34713 34863 1
39167 34714 34864 1
39168 34714 34865 1
39169 34716 34715 1
39170 34715 34725 2
39171 34717 34716 1
39172 34716 34722 1
39173 34718 34717 1
39174 34717 34719 1
39175 34718 34730 1
39176 34718 34866 1
39177 34720 34719 1
39178 34719 34732 1
39179 34721 34720 1
39180 34720 34729 1
39181 34722 34721 1
39182 34721 34726 1
39183 34722 34723 1
39184 34724 34723 1
39185 34723 34867 1
39186 34723 34868 1
39187 34725 34724 1
39188 34724 34869 1
39189 34724 34870 1
39190 34725 34871 1
39191 34727 34726 1
39192 34728 34727 1
39193 34727 34763 1
39194 34729 34728 1
39195 34728 34747 1
39196 34729 34745 1
39197 34731 34730 1
39198 34730 34736 2
39199 34732 34731 1
39200 34731 34733 1
39201 34731 34872 1
39202 34732 34746 1
39203 34734 34733 2
39204 34733 34740 1
39205 34735 34734 1
39206 34734 34737 1
39207 34736 34735 1
39208 34735 34873 1
39209 34735 34874 1
39210 34736 34875 1
39211 34738 34737 1
39212 34737 34876 1
39213 34737 34877 1
39214 34739 34738 1
39215 34738 34878 1
39216 34738 34879 1
39217 34740 34739 2
39218 34739 34744 1
39219 34740 34741 1
39220 34742 34741 1
39221 34741 34880 1
39222 34741 34881 1
39223 34743 34742 1
39224 34742 34817 1
39225 34742 34882 1
39226 34744 34743 1
39227 34743 34883 1
39228 34743 34884 1
39229 34744 34885 1
39230 34744 34886 1
39231 34746 34745 1
39232 34745 34749 1
39233 34746 34887 1
39234 34748 34747 1
39235 34747 34753 1
39236 34749 34748 1
39237 34748 34750 1
39238 34751 34750 1
39239 34750 34888 1
39240 34752 34751 1
39241 34751 34757 1
39242 34753 34752 1
39243 34752 34754 1
39244 34753 34762 1
39245 34755 34754 1
39246 34754 34764 1
39247 34756 34755 1
39248 34755 34761 1
39249 34757 34756 1
39250 34756 34758 1
39251 34757 34889 1
39252 34759 34758 1
39253 34758 34774 1
39254 34760 34759 1
39255 34759 34771 1
39256 34761 34760 1
39257 34760 34768 1
39258 34761 34766 1
39259 34763 34762 1
39260 34762 34765 1
39261 34763 34890 1
39262 34765 34764 1
39263 34764 34767 1
39264 34765 34783 1
39265 34767 34766 1
39266 34766 34770 1
39267 34767 34785 1
39268 34769 34768 1
39269 34768 34801 1
39270 34770 34769 1
39271 34769 34796 1
39272 34770 34794 1
39273 34772 34771 1
39274 34773 34772 1
39275 34772 34778 1
39276 34772 34891 1
39277 34774 34773 1
39278 34773 34775 1
39279 34773 34892 1
39280 34774 34820 1
39281 34774 34893 1
39282 34776 34775 1
39283 34775 34894 1
39284 34775 34895 1
39285 34777 34776 1
39286 34776 34896 1
39287 34776 34897 1
39288 34778 34777 1
39289 34777 34782 1
39290 34777 34898 1
39291 34778 34779 1
39292 34778 34899 1
39293 34780 34779 1
39294 34779 34900 1
39295 34779 34901 1
39296 34781 34780 1
39297 34780 34902 1
39298 34780 34903 1
39299 34782 34781 1
39300 34781 34904 1
39301 34781 34905 1
39302 34782 34906 1
39303 34784 34783 1
39304 34783 34789 1
39305 34785 34784 1
39306 34784 34786 1
39307 34785 34795 1
39308 34787 34786 1
39309 34788 34787 1
39310 34787 34793 1
39311 34787 34907 1
39312 34789 34788 1
39313 34788 34790 1
39314 34788 34908 1
39315 34791 34790 1
39316 34790 34909 1
39317 34790 34910 1
39318 34792 34791 1
39319 34791 34911 1
39320 34791 34912 1
39321 34793 34792 1
39322 34792 34913 1
39323 34792 34914 1
39324 34793 34915 1
39325 34793 34916 1
39326 34795 34794 1
39327 34794 34798 1
39328 34795 34917 1
39329 34797 34796 1
39330 34796 34799 1
39331 34798 34797 1
39332 34797 34802 1
39333 34798 34918 1
39334 34800 34799 1
39335 34799 34804 1
39336 34801 34800 1
39337 34800 34805 1
39338 34801 34919 1
39339 34803 34802 1
39340 34804 34803 1
39341 34803 34814 1
39342 34804 34807 1
39343 34806 34805 1
39344 34805 34811 1
39345 34805 34920 1
39346 34807 34806 1
39347 34806 34808 1
39348 34806 34921 1
39349 34807 34812 1
39350 34809 34808 1
39351 34808 34815 1
39352 34808 34922 1
39353 34810 34809 1
39354 34809 34923 1
39355 34809 34924 1
39356 34811 34810 1
39357 34810 34925 1
39358 34810 34926 1
39359 34811 34927 1
39360 34811 34928 1
39361 34813 34812 1
39362 34812 34816 1
39363 34814 34813 1
39364 34813 34824 1
39365 34814 34821 1
39366 34815 34816 1
39367 34815 34839 1
39368 34816 34835 1
39369 34817 34818 1
39370 34817 34819 1
39371 34817 34929 1
39372 34818 34930 1
39373 34818 34931 1
39374 34818 34932 1
39375 34819 34933 1
39376 34819 34934 1
39377 34819 34935 1
39378 34820 34936 1
39379 34822 34821 1
39380 34821 34937 1
39381 34823 34822 1
39382 34822 34938 1
39383 34824 34823 1
39384 34823 34828 1
39385 34824 34825 1
39386 34826 34825 1
39387 34825 34835 1
39388 34827 34826 1
39389 34826 34832 1
39390 34828 34827 1
39391 34827 34829 1
39392 34828 34939 1
39393 34830 34829 1
39394 34829 34940 1
39395 34831 34830 1
39396 34830 34941 1
39397 34832 34831 1
39398 34831 34838 1
39399 34832 34833 1
39400 34834 34833 1
39401 34833 34836 1
39402 34835 34834 1
39403 34834 34840 1
39404 34837 34836 1
39405 34836 34841 1
39406 34838 34837 1
39407 34837 34942 1
39408 34838 34943 1
39409 34840 34839 1
39410 34839 34944 1
39411 34840 34842 1
39412 34842 34841 1
39413 34841 34846 1
39414 34842 34843 1
39415 34844 34843 1
39416 34843 34945 1
39417 34843 34946 1
39418 34845 34844 1
39419 34844 34947 1
39420 34844 34948 1
39421 34846 34845 1
39422 34845 34949 1
39423 34845 34950 1
39424 34846 34847 2
39425 34951 34952 1
39426 34951 34956 1
39427 34951 35098 1
39428 34951 35099 1
39429 34953 34952 1
39430 34952 35100 1
39431 34952 35101 1
39432 34954 34953 1
39433 34953 34960 1
39434 34953 35102 1
39435 34955 34954 1
39436 34954 34957 1
39437 34954 35103 1
39438 34956 34955 1
39439 34955 35104 1
39440 34955 35105 1
39441 34958 34957 1
39442 34957 34964 1
39443 34957 35106 1
39444 34959 34958 1
39445 34958 34961 1
39446 34958 35107 1
39447 34960 34959 1
39448 34959 35108 1
39449 34959 35109 1
39450 34960 35110 1
39451 34960 35111 1
39452 34962 34961 1
39453 34963 34962 1
39454 34962 34968 1
39455 34962 35112 1
39456 34964 34963 1
39457 34963 34965 1
39458 34963 35113 1
39459 34964 35114 1
39460 34964 35115 1
39461 34966 34965 1
39462 34965 34975 2
39463 34967 34966 1
39464 34966 34972 1
39465 34968 34967 1
39466 34967 34969 1
39467 34968 34980 1
39468 34968 35116 1
39469 34970 34969 1
39470 34969 34982 1
39471 34971 34970 1
39472 34970 34979 1
39473 34972 34971 1
39474 34971 34976 1
39475 34972 34973 1
39476 34974 34973 1
39477 34973 35117 1
39478 34973 35118 1
39479 34975 34974 1
39480 34974 35119 1
39481 34974 35120 1
39482 34975 35121 1
39483 34977 34976 1
39484 34978 34977 1
39485 34977 35013 1
39486 34979 34978 1
39487 34978 34997 1
39488 34979 34995 1
39489 34981 34980 1
39490 34980 34986 2
39491 34982 34981 1
39492 34981 34983 1
39493 34981 35122 1
39494 34982 34996 1
39495 34984 34983 2
39496 34983 34990 1
39497 34985 34984 1
39498 34984 34987 1
39499 34986 34985 1
39500 34985 35123 1
39501 34985 35124 1
39502 34986 35125 1
39503 34988 34987 1
39504 34987 35126 1
39505 34987 35127 1
39506 34989 34988 1
39507 34988 35128 1
39508 34988 35129 1
39509 34990 34989 2
39510 34989 34994 1
39511 34990 34991 1
39512 34992 34991 1
39513 34991 35130 1
39514 34991 35131 1
39515 34993 34992 1
39516 34992 35067 1
39517 34992 35132 1
39518 34994 34993 1
39519 34993 35133 1
39520 34993 35134 1
39521 34994 35135 1
39522 34994 35136 1
39523 34996 34995 1
39524 34995 34999 1
39525 34996 35137 1
39526 34998 34997 1
39527 34997 35003 1
39528 34999 34998 1
39529 34998 35000 1
39530 35001 35000 1
39531 35000 35138 1
39532 35002 35001 1
39533 35001 35007 1
39534 35003 35002 1
39535 35002 35004 1
39536 35003 35012 1
39537 35005 35004 1
39538 35004 35014 1
39539 35006 35005 1
39540 35005 35011 1
39541 35007 35006 1
39542 35006 35008 1
39543 35007 35139 1
39544 35009 35008 1
39545 35008 35024 1
39546 35010 35009 1
39547 35009 35021 1
39548 35011 35010 1
39549 35010 35018 1
39550 35011 35016 1
39551 35013 35012 1
39552 35012 35015 1
39553 35013 35140 1
39554 35015 35014 1
39555 35014 35017 1
39556 35015 35033 1
39557 35017 35016 1
39558 35016 35020 1
39559 35017 35035 1
39560 35019 35018 1
39561 35018 35051 1
39562 35020 35019 1
39563 35019 35046 1
39564 35020 35044 1
39565 35022 35021 1
39566 35023 35022 1
39567 35022 35028 1
39568 35022 35141 1
39569 35024 35023 1
39570 35023 35025 1
39571 35023 35142 1
39572 35024 35070 1
39573 35024 35143 1
39574 35026 35025 1
39575 35025 35144 1
39576 35025 35145 1
39577 35027 35026 1
39578 35026 35146 1
39579 35026 35147 1
39580 35028 35027 1
39581 35027 35032 1
39582 35027 35148 1
39583 35028 35029 1
39584 35028 35149 1
39585 35030 35029 1
39586 35029 35150 1
39587 35029 35151 1
39588 35031 35030 1
39589 35030 35152 1
39590 35030 35153 1
39591 35032 35031 1
39592 35031 35154 1
39593 35031 35155 1
39594 35032 35156 1
39595 35034 35033 1
39596 35033 35039 1
39597 35035 35034 1
39598 35034 35036 1
39599 35035 35045 1
39600 35037 35036 1
39601 35038 35037 1
39602 35037 35043 1
39603 35037 35157 1
39604 35039 35038 1
39605 35038 35040 1
39606 35038 35158 1
39607 35041 35040 1
39608 35040 35159 1
39609 35040 35160 1
39610 35042 35041 1
39611 35041 35161 1
39612 35041 35162 1
39613 35043 35042 1
39614 35042 35163 1
39615 35042 35164 1
39616 35043 35165 1
39617 35043 35166 1
39618 35045 35044 1
39619 35044 35048 1
39620 35045 35167 1
39621 35047 35046 1
39622 35046 35049 1
39623 35048 35047 1
39624 35047 35052 1
39625 35048 35168 1
39626 35050 35049 1
39627 35049 35054 1
39628 35051 35050 1
39629 35050 35055 1
39630 35051 35169 1
39631 35053 35052 1
39632 35054 35053 1
39633 35053 35064 1
39634 35054 35057 1
39635 35056 35055 1
39636 35055 35061 1
39637 35055 35170 1
39638 35057 35056 1
39639 35056 35058 1
39640 35056 35171 1
39641 35057 35062 1
39642 35059 35058 1
39643 35058 35065 1
39644 35058 35172 1
39645 35060 35059 1
39646 35059 35173 1
39647 35059 35174 1
39648 35061 35060 1
39649 35060 35175 1
39650 35060 35176 1
39651 35061 35177 1
39652 35061 35178 1
39653 35063 35062 1
39654 35062 35066 1
39655 35064 35063 1
39656 35063 35074 1
39657 35064 35071 1
39658 35065 35066 1
39659 35065 35089 1
39660 35066 35085 1
39661 35067 35068 1
39662 35067 35069 1
39663 35067 35179 1
39664 35068 35180 1
39665 35068 35181 1
39666 35068 35182 1
39667 35069 35183 1
39668 35069 35184 1
39669 35069 35185 1
39670 35070 35186 1
39671 35072 35071 1
39672 35071 35187 1
39673 35073 35072 1
39674 35072 35188 1
39675 35074 35073 1
39676 35073 35078 1
39677 35074 35075 1
39678 35076 35075 1
39679 35075 35085 1
39680 35077 35076 1
39681 35076 35082 1
39682 35078 35077 1
39683 35077 35079 1
39684 35078 35189 1
39685 35080 35079 1
39686 35079 35190 1
39687 35081 35080 1
39688 35080 35191 1
39689 35082 35081 1
39690 35081 35088 1
39691 35082 35083 1
39692 35084 35083 1
39693 35083 35086 1
39694 35085 35084 1
39695 35084 35090 1
39696 35087 35086 1
39697 35086 35091 1
39698 35088 35087 1
39699 35087 35192 1
39700 35088 35193 1
39701 35090 35089 1
39702 35089 35194 1
39703 35090 35092 1
39704 35092 35091 1
39705 35091 35096 1
39706 35092 35093 1
39707 35094 35093 1
39708 35093 35195 1
39709 35093 35196 1
39710 35095 35094 1
39711 35094 35197 1
39712 35094 35198 1
39713 35096 35095 1
39714 35095 35199 1
39715 35095 35200 1
39716 35096 35097 2
39717 35201 35202 1
39718 35201 35206 1
39719 35201 35348 1
39720 35201 35349 1
39721 35203 35202 1
39722 35202 35350 1
39723 35202 35351 1
39724 35204 35203 1
39725 35203 35210 1
39726 35203 35352 1
39727 35205 35204 1
39728 35204 35207 1
39729 35204 35353 1
39730 35206 35205 1
39731 35205 35354 1
39732 35205 35355 1
39733 35208 35207 1
39734 35207 35214 1
39735 35207 35356 1
39736 35209 35208 1
39737 35208 35211 1
39738 35208 35357 1
39739 35210 35209 1
39740 35209 35358 1
39741 35209 35359 1
39742 35210 35360 1
39743 35210 35361 1
39744 35212 35211 1
39745 35213 35212 1
39746 35212 35218 1
39747 35212 35362 1
39748 35214 35213 1
39749 35213 35215 1
39750 35213 35363 1
39751 35214 35364 1
39752 35214 35365 1
39753 35216 35215 1
39754 35215 35225 2
39755 35217 35216 1
39756 35216 35222 1
39757 35218 35217 1
39758 35217 35219 1
39759 35218 35230 1
39760 35218 35366 1
39761 35220 35219 1
39762 35219 35232 1
39763 35221 35220 1
39764 35220 35229 1
39765 35222 35221 1
39766 35221 35226 1
39767 35222 35223 1
39768 35224 35223 1
39769 35223 35367 1
39770 35223 35368 1
39771 35225 35224 1
39772 35224 35369 1
39773 35224 35370 1
39774 35225 35371 1
39775 35227 35226 1
39776 35228 35227 1
39777 35227 35263 1
39778 35229 35228 1
39779 35228 35247 1
39780 35229 35245 1
39781 35231 35230 1
39782 35230 35236 2
39783 35232 35231 1
39784 35231 35233 1
39785 35231 35372 1
39786 35232 35246 1
39787 35234 35233 2
39788 35233 35240 1
39789 35235 35234 1
39790 35234 35237 1
39791 35236 35235 1
39792 35235 35373 1
39793 35235 35374 1
39794 35236 35375 1
39795 35238 35237 1
39796 35237 35376 1
39797 35237 35377 1
39798 35239 35238 1
39799 35238 35378 1
39800 35238 35379 1
39801 35240 35239 2
39802 35239 35244 1
39803 35240 35241 1
39804 35242 35241 1
39805 35241 35380 1
39806 35241 35381 1
39807 35243 35242 1
39808 35242 35317 1
39809 35242 35382 1
39810 35244 35243 1
39811 35243 35383 1
39812 35243 35384 1
39813 35244 35385 1
39814 35244 35386 1
39815 35246 35245 1
39816 35245 35249 1
39817 35246 35387 1
39818 35248 35247 1
39819 35247 35253 1
39820 35249 35248 1
39821 35248 35250 1
39822 35251 35250 1
39823 35250 35388 1
39824 35252 35251 1
39825 35251 35257 1
39826 35253 35252 1
39827 35252 35254 1
39828 35253 35262 1
39829 35255 35254 1
39830 35254 35264 1
39831 35256 35255 1
39832 35255 35261 1
39833 35257 35256 1
39834 35256 35258 1
39835 35257 35389 1
39836 35259 35258 1
39837 35258 35274 1
39838 35260 35259 1
39839 35259 35271 1
39840 35261 35260 1
39841 35260 35268 1
39842 35261 35266 1
39843 35263 35262 1
39844 35262 35265 1
39845 35263 35390 1
39846 35265 35264 1
39847 35264 35267 1
39848 35265 35283 1
39849 35267 35266 1
39850 35266 35270 1
39851 35267 35285 1
39852 35269 35268 1
39853 35268 35301 1
39854 35270 35269 1
39855 35269 35296 1
39856 35270 35294 1
39857 35272 35271 1
39858 35273 35272 1
39859 35272 35278 1
39860 35272 35391 1
39861 35274 35273 1
39862 35273 35275 1
39863 35273 35392 1
39864 35274 35320 1
39865 35274 35393 1
39866 35276 35275 1
39867 35275 35394 1
39868 35275 35395 1
39869 35277 35276 1
39870 35276 35396 1
39871 35276 35397 1
39872 35278 35277 1
39873 35277 35282 1
39874 35277 35398 1
39875 35278 35279 1
39876 35278 35399 1
39877 35280 35279 1
39878 35279 35400 1
39879 35279 35401 1
39880 35281 35280 1
39881 35280 35402 1
39882 35280 35403 1
39883 35282 35281 1
39884 35281 35404 1
39885 35281 35405 1
39886 35282 35406 1
39887 35284 35283 1
39888 35283 35289 1
39889 35285 35284 1
39890 35284 35286 1
39891 35285 35295 1
39892 35287 35286 1
39893 35288 35287 1
39894 35287 35293 1
39895 35287 35407 1
39896 35289 35288 1
39897 35288 35290 1
39898 35288 35408 1
39899 35291 35290 1
39900 35290 35409 1
39901 35290 35410 1
39902 35292 35291 1
39903 35291 35411 1
39904 35291 35412 1
39905 35293 35292 1
39906 35292 35413 1
39907 35292 35414 1
39908 35293 35415 1
39909 35293 35416 1
39910 35295 35294 1
39911 35294 35298 1
39912 35295 35417 1
39913 35297 35296 1
39914 35296 35299 1
39915 35298 35297 1
39916 35297 35302 1
39917 35298 35418 1
39918 35300 35299 1
39919 35299 35304 1
39920 35301 35300 1
39921 35300 35305 1
39922 35301 35419 1
39923 35303 35302 1
39924 35304 35303 1
39925 35303 35314 1
39926 35304 35307 1
39927 35306 35305 1
39928 35305 35311 1
39929 35305 35420 1
39930 35307 35306 1
39931 35306 35308 1
39932 35306 35421 1
39933 35307 35312 1
39934 35309 35308 1
39935 35308 35315 1
39936 35308 35422 1
39937 35310 35309 1
39938 35309 35423 1
39939 35309 35424 1
39940 35311 35310 1
39941 35310 35425 1
39942 35310 35426 1
39943 35311 35427 1
39944 35311 35428 1
39945 35313 35312 1
39946 35312 35316 1
39947 35314 35313 1
39948 35313 35324 1
39949 35314 35321 1
39950 35315 35316 1
39951 35315 35339 1
39952 35316 35335 1
39953 35317 35318 1
39954 35317 35319 1
39955 35317 35429 1
39956 35318 35430 1
39957 35318 35431 1
39958 35318 35432 1
39959 35319 35433 1
39960 35319 35434 1
39961 35319 35435 1
39962 35320 35436 1
39963 35322 35321 1
39964 35321 35437 1
39965 35323 35322 1
39966 35322 35438 1
39967 35324 35323 1
39968 35323 35328 1
39969 35324 35325 1
39970 35326 35325 1
39971 35325 35335 1
39972 35327 35326 1
39973 35326 35332 1
39974 35328 35327 1
39975 35327 35329 1
39976 35328 35439 1
39977 35330 35329 1
39978 35329 35440 1
39979 35331 35330 1
39980 35330 35441 1
39981 35332 35331 1
39982 35331 35338 1
39983 35332 35333 1
39984 35334 35333 1
39985 35333 35336 1
39986 35335 35334 1
39987 35334 35340 1
39988 35337 35336 1
39989 35336 35341 1
39990 35338 35337 1
39991 35337 35442 1
39992 35338 35443 1
39993 35340 35339 1
39994 35339 35444 1
39995 35340 35342 1
39996 35342 35341 1
39997 35341 35346 1
39998 35342 35343 1
39999 35344 35343 1
40000 35343 35445 1
40001 35343 35446 1
40002 35345 35344 1
40003 35344 35447 1
40004 35344 35448 1
40005 35346 35345 1
40006 35345 35449 1
40007 35345 35450 1
40008 35346 35347 2
40009 35451 35452 1
40010 35451 35456 1
40011 35451 35598 1
40012 35451 35599 1
40013 35453 35452 1
40014 35452 35600 1
40015 35452 35601 1
40016 35454 35453 1
40017 35453 35460 1
40018 35453 35602 1
40019 35455 35454 1
40020 35454 35457 1
40021 35454 35603 1
40022 35456 35455 1
40023 35455 35604 1
40024 35455 35605 1
40025 35458 35457 1
40026 35457 35464 1
40027 35457 35606 1
40028 35459 35458 1
40029 35458 35461 1
40030 35458 35607 1
40031 35460 35459 1
40032 35459 35608 1
40033 35459 35609 1
40034 35460 35610 1
40035 35460 35611 1
40036 35462 35461 1
40037 35463 35462 1
40038 35462 35468 1
40039 35462 35612 1
40040 35464 35463 1
40041 35463 35465 1
40042 35463 35613 1
40043 35464 35614 1
40044 35464 35615 1
40045 35466 35465 1
40046 35465 35475 2
40047 35467 35466 1
40048 35466 35472 1
40049 35468 35467 1
40050 35467 35469 1
40051 35468 35480 1
40052 35468 35616 1
40053 35470 35469 1
40054 35469 35482 1
40055 35471 35470 1
40056 35470 35479 1
40057 35472 35471 1
40058 35471 35476 1
40059 35472 35473 1
40060 35474 35473 1
40061 35473 35617 1
40062 35473 35618 1
40063 35475 35474 1
40064 35474 35619 1
40065 35474 35620 1
40066 35475 35621 1
40067 35477 35476 1
40068 35478 35477 1
40069 35477 35513 1
40070 35479 35478 1
40071 35478 35497 1
40072 35479 35495 1
40073 35481 35480 1
40074 35480 35486 2
40075 35482 35481 1
40076 35481 35483 1
40077 35481 35622 1
40078 35482 35496 1
40079 35484 35483 2
40080 35483 35490 1
40081 35485 35484 1
40082 35484 35487 1
40083 35486 35485 1
40084 35485 35623 1
40085 35485 35624 1
40086 35486 35625 1
40087 35488 35487 1
40088 35487 35626 1
40089 35487 35627 1
40090 35489 35488 1
40091 35488 35628 1
40092 35488 35629 1
40093 35490 35489 2
40094 35489 35494 1
40095 35490 35491 1
40096 35492 35491 1
40097 35491 35630 1
40098 35491 35631 1
40099 35493 35492 1
40100 35492 35567 1
40101 35492 35632 1
40102 35494 35493 1
40103 35493 35633 1
40104 35493 35634 1
40105 35494 35635 1
40106 35494 35636 1
40107 35496 35495 1
40108 35495 35499 1
40109 35496 35637 1
40110 35498 35497 1
40111 35497 35503 1
40112 35499 35498 1
40113 35498 35500 1
40114 35501 35500 1
40115 35500 35638 1
40116 35502 35501 1
40117 35501 35507 1
40118 35503 35502 1
40119 35502 35504 1
40120 35503 35512 1
40121 35505 35504 1
40122 35504 35514 1
40123 35506 35505 1
40124 35505 35511 1
40125 35507 35506 1
40126 35506 35508 1
40127 35507 35639 1
40128 35509 35508 1
40129 35508 35524 1
40130 35510 35509 1
40131 35509 35521 1
40132 35511 35510 1
40133 35510 35518 1
40134 35511 35516 1
40135 35513 35512 1
40136 35512 35515 1
40137 35513 35640 1
40138 35515 35514 1
40139 35514 35517 1
40140 35515 35533 1
40141 35517 35516 1
40142 35516 35520 1
40143 35517 35535 1
40144 35519 35518 1
40145 35518 35551 1
40146 35520 35519 1
40147 35519 35546 1
40148 35520 35544 1
40149 35522 35521 1
40150 35523 35522 1
40151 35522 35528 1
40152 35522 35641 1
40153 35524 35523 1
40154 35523 35525 1
40155 35523 35642 1
40156 35524 35570 1
40157 35524 35643 1
40158 35526 35525 1
40159 35525 35644 1
40160 35525 35645 1
40161 35527 35526 1
40162 35526 35646 1
40163 35526 35647 1
40164 35528 35527 1
40165 35527 35532 1
40166 35527 35648 1
40167 35528 35529 1
40168 35528 35649 1
40169 35530 35529 1
40170 35529 35650 1
40171 35529 35651 1
40172 35531 35530 1
40173 35530 35652 1
40174 35530 35653 1
40175 35532 35531 1
40176 35531 35654 1
40177 35531 35655 1
40178 35532 35656 1
40179 35534 35533 1
40180 35533 35539 1
40181 35535 35534 1
40182 35534 35536 1
40183 35535 35545 1
40184 35537 35536 1
40185 35538 35537 1
40186 35537 35543 1
40187 35537 35657 1
40188 35539 35538 1
40189 35538 35540 1
40190 35538 35658 1
40191 35541 35540 1
40192 35540 35659 1
40193 35540 35660 1
40194 35542 35541 1
40195 35541 35661 1
40196 35541 35662 1
40197 35543 35542 1
40198 35542 35663 1
40199 35542 35664 1
40200 35543 35665 1
40201 35543 35666 1
40202 35545 35544 1
40203 35544 35548 1
40204 35545 35667 1
40205 35547 35546 1
40206 35546 35549 1
40207 35548 35547 1
40208 35547 35552 1
40209 35548 35668 1
40210 35550 35549 1
40211 35549 35554 1
40212 35551 35550 1
40213 35550 35555 1
40214 35551 35669 1
40215 35553 35552 1
40216 35554 35553 1
40217 35553 35564 1
40218 35554 35557 1
40219 35556 35555 1
40220 35555 35561 1
40221 35555 35670 1
40222 35557 35556 1
40223 35556 35558 1
40224 35556 35671 1
40225 35557 35562 1
40226 35559 35558 1
40227 35558 35565 1
40228 35558 35672 1
40229 35560 35559 1
40230 35559 35673 1
40231 35559 35674 1
40232 35561 35560 1
40233 35560 35675 1
40234 35560 35676 1
40235 35561 35677 1
40236 35561 35678 1
40237 35563 35562 1
40238 35562 35566 1
40239 35564 35563 1
40240 35563 35574 1
40241 35564 35571 1
40242 35565 35566 1
40243 35565 35589 1
40244 35566 35585 1
40245 35567 35568 1
40246 35567 35569 1
40247 35567 35679 1
40248 35568 35680 1
40249 35568 35681 1
40250 35568 35682 1
40251 35569 35683 1
40252 35569 35684 1
40253 35569 35685 1
40254 35570 35686 1
40255 35572 35571 1
40256 35571 35687 1
40257 35573 35572 1
40258 35572 35688 1
40259 35574 35573 1
40260 35573 35578 1
40261 35574 35575 1
40262 35576 35575 1
40263 35575 35585 1
40264 35577 35576 1
40265 35576 35582 1
40266 35578 35577 1
40267 35577 35579 1
40268 35578 35689 1
40269 35580 35579 1
40270 35579 35690 1
40271 35581 35580 1
40272 35580 35691 1
40273 35582 35581 1
40274 35581 35588 1
40275 35582 35583 1
40276 35584 35583 1
40277 35583 35586 1
40278 35585 35584 1
40279 35584 35590 1
40280 35587 35586 1
40281 35586 35591 1
40282 35588 35587 1
40283 35587 35692 1
40284 35588 35693 1
40285 35590 35589 1
40286 35589 35694 1
40287 35590 35592 1
40288 35592 35591 1
40289 35591 35596 1
40290 35592 35593 1
40291 35594 35593 1
40292 35593 35695 1
40293 35593 35696 1
40294 35595 35594 1
40295 35594 35697 1
40296 35594 35698 1
40297 35596 35595 1
40298 35595 35699 1
40299 35595 35700 1
40300 35596 35597 2
40301 35701 35702 un
40302 35701 35706 un
40303 35701 35756 1
40304 35703 35702 un
40305 35702 35758 1
40306 35704 35703 un
40307 35703 35710 1
40308 35705 35704 un
40309 35704 35707 1
40310 35706 35705 un
40311 35705 35757 1
40312 35706 35754 1
40313 35708 35707 1
40314 35707 35770 1
40315 35707 35771 1
40316 35709 35708 un
40317 35708 35714 un
40318 35710 35709 1
40319 35709 35711 un
40320 35710 35772 1
40321 35710 35773 1
40322 35712 35711 un
40323 35711 35759 1
40324 35713 35712 un
40325 35712 35760 1
40326 35714 35713 un
40327 35713 35718 un
40328 35714 35715 un
40329 35716 35715 un
40330 35715 35774 1
40331 35717 35716 un
40332 35716 35722 un
40333 35718 35717 un
40334 35717 35719 1
40335 35718 35761 1
40336 35720 35719 1
40337 35719 35726 1
40338 35721 35720 1
40339 35720 35723 1
40340 35722 35721 un
40341 35721 35730 un
40342 35722 35727 un
40343 35724 35723 1
40344 35723 35775 1
40345 35723 35776 1
40346 35725 35724 un
40347 35724 35763 1
40348 35724 35777 1
40349 35726 35725 1
40350 35725 35762 1
40351 35725 35778 1
40352 35726 35779 1
40353 35726 35780 1
40354 35728 35727 un
40355 35727 35765 1
40356 35729 35728 un
40357 35728 35734 1
40358 35730 35729 un
40359 35729 35731 1
40360 35730 35764 1
40361 35732 35731 1
40362 35731 35767 2
40363 35733 35732 un
40364 35732 35738 un
40365 35734 35733 1
40366 35733 35735 1
40367 35734 35766 2
40368 35736 35735 1
40369 35735 35781 1
40370 35735 35782 1
40371 35737 35736 1
40372 35736 35783 1
40373 35736 35784 1
40374 35738 35737 un
40375 35737 35742 un
40376 35738 35739 un
40377 35740 35739 un
40378 35741 35740 un
40379 35740 35749 un
40380 35742 35741 un
40381 35741 35746 1
40382 35742 35743 1
40383 35744 35743 1
40384 35743 35785 1
40385 35743 35786 1
40386 35745 35744 1
40387 35744 35787 1
40388 35744 35788 1
40389 35746 35745 1
40390 35745 35789 1
40391 35745 35790 1
40392 35746 35747 1
40393 35746 35791 1
40394 35748 35747 1
40395 35747 35792 1
40396 35747 35793 1
40397 35749 35748 un
40398 35748 35753 un
40399 35749 35750 un
40400 35751 35750 un
40401 35750 35794 1
40402 35752 35751 un
40403 35751 35795 1
40404 35753 35752 un
40405 35752 35769 1
40406 35753 35768 1
40407 35754 35755 1
40408 35754 35796 1
40409 35754 35797 1
40410 35755 35798 1
40411 35755 35799 1
40412 35755 35800 1
40413 35756 35801 1
40414 35756 35802 1
40415 35756 35803 1
40416 35757 35804 1
40417 35757 35805 1
40418 35757 35806 1
40419 35758 35807 1
40420 35758 35808 1
40421 35758 35809 1
40422 35759 35810 1
40423 35759 35811 1
40424 35759 35812 1
40425 35760 35813 1
40426 35760 35814 1
40427 35760 35815 1
40428 35761 35816 1
40429 35762 35817 1
40430 35762 35818 1
40431 35762 35819 1
40432 35763 35820 1
40433 35763 35821 1
40434 35763 35822 1
40435 35764 35823 1
40436 35765 35824 1
40437 35768 35825 1
40438 35768 35826 1
40439 35768 35827 1
40440 35769 35828 1
40441 35769 35829 1
40442 35769 35830 1
40443 35831 35832 un
40444 35831 35836 un
40445 35831 35886 1
40446 35833 35832 un
40447 35832 35888 1
40448 35834 35833 un
40449 35833 35840 1
40450 35835 35834 un
40451 35834 35837 1
40452 35836 35835 un
40453 35835 35887 1
40454 35836 35884 1
40455 35838 35837 1
40456 35837 35900 1
40457 35837 35901 1
40458 35839 35838 un
40459 35838 35844 un
40460 35840 35839 1
40461 35839 35841 un
40462 35840 35902 1
40463 35840 35903 1
40464 35842 35841 un
40465 35841 35889 1
40466 35843 35842 un
40467 35842 35890 1
40468 35844 35843 un
40469 35843 35848 un
40470 35844 35845 un
40471 35846 35845 un
40472 35845 35904 1
40473 35847 35846 un
40474 35846 35852 un
40475 35848 35847 un
40476 35847 35849 1
40477 35848 35891 1
40478 35850 35849 1
40479 35849 35856 1
40480 35851 35850 1
40481 35850 35853 1
40482 35852 35851 un
40483 35851 35860 un
40484 35852 35857 un
40485 35854 35853 1
40486 35853 35905 1
40487 35853 35906 1
40488 35855 35854 un
40489 35854 35893 1
40490 35854 35907 1
40491 35856 35855 1
40492 35855 35892 1
40493 35855 35908 1
40494 35856 35909 1
40495 35856 35910 1
40496 35858 35857 un
40497 35857 35895 1
40498 35859 35858 un
40499 35858 35864 1
40500 35860 35859 un
40501 35859 35861 1
40502 35860 35894 1
40503 35862 35861 1
40504 35861 35897 2
40505 35863 35862 un
40506 35862 35868 un
40507 35864 35863 1
40508 35863 35865 1
40509 35864 35896 2
40510 35866 35865 1
40511 35865 35911 1
40512 35865 35912 1
40513 35867 35866 1
40514 35866 35913 1
40515 35866 35914 1
40516 35868 35867 un
40517 35867 35872 un
40518 35868 35869 un
40519 35870 35869 un
40520 35871 35870 un
40521 35870 35879 un
40522 35872 35871 un
40523 35871 35876 1
40524 35872 35873 1
40525 35874 35873 1
40526 35873 35915 1
40527 35873 35916 1
40528 35875 35874 1
40529 35874 35917 1
40530 35874 35918 1
40531 35876 35875 1
40532 35875 35919 1
40533 35875 35920 1
40534 35876 35877 1
40535 35876 35921 1
40536 35878 35877 1
40537 35877 35922 1
40538 35877 35923 1
40539 35879 35878 un
40540 35878 35883 un
40541 35879 35880 un
40542 35881 35880 un
40543 35880 35924 1
40544 35882 35881 un
40545 35881 35925 1
40546 35883 35882 un
40547 35882 35899 1
40548 35883 35898 1
40549 35884 35885 1
40550 35884 35926 1
40551 35884 35927 1
40552 35885 35928 1
40553 35885 35929 1
40554 35885 35930 1
40555 35886 35931 1
40556 35886 35932 1
40557 35886 35933 1
40558 35887 35934 1
40559 35887 35935 1
40560 35887 35936 1
40561 35888 35937 1
40562 35888 35938 1
40563 35888 35939 1
40564 35889 35940 1
40565 35889 35941 1
40566 35889 35942 1
40567 35890 35943 1
40568 35890 35944 1
40569 35890 35945 1
40570 35891 35946 1
40571 35892 35947 1
40572 35892 35948 1
40573 35892 35949 1
40574 35893 35950 1
40575 35893 35951 1
40576 35893 35952 1
40577 35894 35953 1
40578 35895 35954 1
40579 35898 35955 1
40580 35898 35956 1
40581 35898 35957 1
40582 35899 35958 1
40583 35899 35959 1
40584 35899 35960 1
40585 35961 35962 un
40586 35961 35966 un
40587 35961 36016 1
40588 35963 35962 un
40589 35962 36018 1
40590 35964 35963 un
40591 35963 35970 1
40592 35965 35964 un
40593 35964 35967 1
40594 35966 35965 un
40595 35965 36017 1
40596 35966 36014 1
40597 35968 35967 1
40598 35967 36030 1
40599 35967 36031 1
40600 35969 35968 un
40601 35968 35974 un
40602 35970 35969 1
40603 35969 35971 un
40604 35970 36032 1
40605 35970 36033 1
40606 35972 35971 un
40607 35971 36019 1
40608 35973 35972 un
40609 35972 36020 1
40610 35974 35973 un
40611 35973 35978 un
40612 35974 35975 un
40613 35976 35975 un
40614 35975 36034 1
40615 35977 35976 un
40616 35976 35982 un
40617 35978 35977 un
40618 35977 35979 1
40619 35978 36021 1
40620 35980 35979 1
40621 35979 35986 1
40622 35981 35980 1
40623 35980 35983 1
40624 35982 35981 un
40625 35981 35990 un
40626 35982 35987 un
40627 35984 35983 1
40628 35983 36035 1
40629 35983 36036 1
40630 35985 35984 un
40631 35984 36023 1
40632 35984 36037 1
40633 35986 35985 1
40634 35985 36022 1
40635 35985 36038 1
40636 35986 36039 1
40637 35986 36040 1
40638 35988 35987 un
40639 35987 36025 1
40640 35989 35988 un
40641 35988 35994 1
40642 35990 35989 un
40643 35989 35991 1
40644 35990 36024 1
40645 35992 35991 1
40646 35991 36027 2
40647 35993 35992 un
40648 35992 35998 un
40649 35994 35993 1
40650 35993 35995 1
40651 35994 36026 2
40652 35996 35995 1
40653 35995 36041 1
40654 35995 36042 1
40655 35997 35996 1
40656 35996 36043 1
40657 35996 36044 1
40658 35998 35997 un
40659 35997 36002 un
40660 35998 35999 un
40661 36000 35999 un
40662 36001 36000 un
40663 36000 36009 un
40664 36002 36001 un
40665 36001 36006 1
40666 36002 36003 1
40667 36004 36003 1
40668 36003 36045 1
40669 36003 36046 1
40670 36005 36004 1
40671 36004 36047 1
40672 36004 36048 1
40673 36006 36005 1
40674 36005 36049 1
40675 36005 36050 1
40676 36006 36007 1
40677 36006 36051 1
40678 36008 36007 1
40679 36007 36052 1
40680 36007 36053 1
40681 36009 36008 un
40682 36008 36013 un
40683 36009 36010 un
40684 36011 36010 un
40685 36010 36054 1
40686 36012 36011 un
40687 36011 36055 1
40688 36013 36012 un
40689 36012 36029 1
40690 36013 36028 1
40691 36014 36015 1
40692 36014 36056 1
40693 36014 36057 1
40694 36015 36058 1
40695 36015 36059 1
40696 36015 36060 1
40697 36016 36061 1
40698 36016 36062 1
40699 36016 36063 1
40700 36017 36064 1
40701 36017 36065 1
40702 36017 36066 1
40703 36018 36067 1
40704 36018 36068 1
40705 36018 36069 1
40706 36019 36070 1
40707 36019 36071 1
40708 36019 36072 1
40709 36020 36073 1
40710 36020 36074 1
40711 36020 36075 1
40712 36021 36076 1
40713 36022 36077 1
40714 36022 36078 1
40715 36022 36079 1
40716 36023 36080 1
40717 36023 36081 1
40718 36023 36082 1
40719 36024 36083 1
40720 36025 36084 1
40721 36028 36085 1
40722 36028 36086 1
40723 36028 36087 1
40724 36029 36088 1
40725 36029 36089 1
40726 36029 36090 1
40727 36091 36092 un
40728 36091 36096 un
40729 36091 36146 1
40730 36093 36092 un
40731 36092 36148 1
40732 36094 36093 un
40733 36093 36100 1
40734 36095 36094 un
40735 36094 36097 1
40736 36096 36095 un
40737 36095 36147 1
40738 36096 36144 1
40739 36098 36097 1
40740 36097 36160 1
40741 36097 36161 1
40742 36099 36098 un
40743 36098 36104 un
40744 36100 36099 1
40745 36099 36101 un
40746 36100 36162 1
40747 36100 36163 1
40748 36102 36101 un
40749 36101 36149 1
40750 36103 36102 un
40751 36102 36150 1
40752 36104 36103 un
40753 36103 36108 un
40754 36104 36105 un
40755 36106 36105 un
40756 36105 36164 1
40757 36107 36106 un
40758 36106 36112 un
40759 36108 36107 un
40760 36107 36109 1
40761 36108 36151 1
40762 36110 36109 1
40763 36109 36116 1
40764 36111 36110 1
40765 36110 36113 1
40766 36112 36111 un
40767 36111 36120 un
40768 36112 36117 un
40769 36114 36113 1
40770 36113 36165 1
40771 36113 36166 1
40772 36115 36114 un
40773 36114 36153 1
40774 36114 36167 1
40775 36116 36115 1
40776 36115 36152 1
40777 36115 36168 1
40778 36116 36169 1
40779 36116 36170 1
40780 36118 36117 un
40781 36117 36155 1
40782 36119 36118 un
40783 36118 36124 1
40784 36120 36119 un
40785 36119 36121 1
40786 36120 36154 1
40787 36122 36121 1
40788 36121 36157 2
40789 36123 36122 un
40790 36122 36128 un
40791 36124 36123 1
40792 36123 36125 1
40793 36124 36156 2
40794 36126 36125 1
40795 36125 36171 1
40796 36125 36172 1
40797 36127 36126 1
40798 36126 36173 1
40799 36126 36174 1
40800 36128 36127 un
40801 36127 36132 un
40802 36128 36129 un
40803 36130 36129 un
40804 36131 36130 un
40805 36130 36139 un
40806 36132 36131 un
40807 36131 36136 1
40808 36132 36133 1
40809 36134 36133 1
40810 36133 36175 1
40811 36133 36176 1
40812 36135 36134 1
40813 36134 36177 1
40814 36134 36178 1
40815 36136 36135 1
40816 36135 36179 1
40817 36135 36180 1
40818 36136 36137 1
40819 36136 36181 1
40820 36138 36137 1
40821 36137 36182 1
40822 36137 36183 1
40823 36139 36138 un
40824 36138 36143 un
40825 36139 36140 un
40826 36141 36140 un
40827 36140 36184 1
40828 36142 36141 un
40829 36141 36185 1
40830 36143 36142 un
40831 36142 36159 1
40832 36143 36158 1
40833 36144 36145 1
40834 36144 36186 1
40835 36144 36187 1
40836 36145 36188 1
40837 36145 36189 1
40838 36145 36190 1
40839 36146 36191 1
40840 36146 36192 1
40841 36146 36193 1
40842 36147 36194 1
40843 36147 36195 1
40844 36147 36196 1
40845 36148 36197 1
40846 36148 36198 1
40847 36148 36199 1
40848 36149 36200 1
40849 36149 36201 1
40850 36149 36202 1
40851 36150 36203 1
40852 36150 36204 1
40853 36150 36205 1
40854 36151 36206 1
40855 36152 36207 1
40856 36152 36208 1
40857 36152 36209 1
40858 36153 36210 1
40859 36153 36211 1
40860 36153 36212 1
40861 36154 36213 1
40862 36155 36214 1
40863 36158 36215 1
40864 36158 36216 1
40865 36158 36217 1
40866 36159 36218 1
40867 36159 36219 1
40868 36159 36220 1
40869 36221 36222 un
40870 36221 36226 un
40871 36221 36276 1
40872 36223 36222 un
40873 36222 36278 1
40874 36224 36223 un
40875 36223 36230 1
40876 36225 36224 un
40877 36224 36227 1
40878 36226 36225 un
40879 36225 36277 1
40880 36226 36274 1
40881 36228 36227 1
40882 36227 36290 1
40883 36227 36291 1
40884 36229 36228 un
40885 36228 36234 un
40886 36230 36229 1
40887 36229 36231 un
40888 36230 36292 1
40889 36230 36293 1
40890 36232 36231 un
40891 36231 36279 1
40892 36233 36232 un
40893 36232 36280 1
40894 36234 36233 un
40895 36233 36238 un
40896 36234 36235 un
40897 36236 36235 un
40898 36235 36294 1
40899 36237 36236 un
40900 36236 36242 un
40901 36238 36237 un
40902 36237 36239 1
40903 36238 36281 1
40904 36240 36239 1
40905 36239 36246 1
40906 36241 36240 1
40907 36240 36243 1
40908 36242 36241 un
40909 36241 36250 un
40910 36242 36247 un
40911 36244 36243 1
40912 36243 36295 1
40913 36243 36296 1
40914 36245 36244 un
40915 36244 36283 1
40916 36244 36297 1
40917 36246 36245 1
40918 36245 36282 1
40919 36245 36298 1
40920 36246 36299 1
40921 36246 36300 1
40922 36248 36247 un
40923 36247 36285 1
40924 36249 36248 un
40925 36248 36254 1
40926 36250 36249 un
40927 36249 36251 1
40928 36250 36284 1
40929 36252 36251 1
40930 36251 36287 2
40931 36253 36252 un
40932 36252 36258 un
40933 36254 36253 1
40934 36253 36255 1
40935 36254 36286 2
40936 36256 36255 1
40937 36255 36301 1
40938 36255 36302 1
40939 36257 36256 1
40940 36256 36303 1
40941 36256 36304 1
40942 36258 36257 un
40943 36257 36262 un
40944 36258 36259 un
40945 36260 36259 un
40946 36261 36260 un
40947 36260 36269 un
40948 36262 36261 un
40949 36261 36266 1
40950 36262 36263 1
40951 36264 36263 1
40952 36263 36305 1
40953 36263 36306 1
40954 36265 36264 1
40955 36264 36307 1
40956 36264 36308 1
40957 36266 36265 1
40958 36265 36309 1
40959 36265 36310 1
40960 36266 36267 1
40961 36266 36311 1
40962 36268 36267 1
40963 36267 36312 1
40964 36267 36313 1
40965 36269 36268 un
40966 36268 36273 un
40967 36269 36270 un
40968 36271 36270 un
40969 36270 36314 1
40970 36272 36271 un
40971 36271 36315 1
40972 36273 36272 un
40973 36272 36289 1
40974 36273 36288 1
40975 36274 36275 1
40976 36274 36316 1
40977 36274 36317 1
40978 36275 36318 1
40979 36275 36319 1
40980 36275 36320 1
40981 36276 36321 1
40982 36276 36322 1
40983 36276 36323 1
40984 36277 36324 1
40985 36277 36325 1
40986 36277 36326 1
40987 36278 36327 1
40988 36278 36328 1
40989 36278 36329 1
40990 36279 36330 1
40991 36279 36331 1
40992 36279 36332 1
40993 36280 36333 1
40994 36280 36334 1
40995 36280 36335 1
40996 36281 36336 1
40997 36282 36337 1
40998 36282 36338 1
40999 36282 36339 1
41000 36283 36340 1
41001 36283 36341 1
41002 36283 36342 1
41003 36284 36343 1
41004 36285 36344 1
41005 36288 36345 1
41006 36288 36346 1
41007 36288 36347 1
41008 36289 36348 1
41009 36289 36349 1
41010 36289 36350 1
41011 36351 36352 un
41012 36351 36356 un
41013 36351 36406 1
41014 36353 36352 un
41015 36352 36408 1
41016 36354 36353 un
41017 36353 36360 1
41018 36355 36354 un
41019 36354 36357 1
41020 36356 36355 un
41021 36355 36407 1
41022 36356 36404 1
41023 36358 36357 1
41024 36357 36420 1
41025 36357 36421 1
41026 36359 36358 un
41027 36358 36364 un
41028 36360 36359 1
41029 36359 36361 un
41030 36360 36422 1
41031 36360 36423 1
41032 36362 36361 un
41033 36361 36409 1
41034 36363 36362 un
41035 36362 36410 1
41036 36364 36363 un
41037 36363 36368 un
41038 36364 36365 un
41039 36366 36365 un
41040 36365 36424 1
41041 36367 36366 un
41042 36366 36372 un
41043 36368 36367 un
41044 36367 36369 1
41045 36368 36411 1
41046 36370 36369 1
41047 36369 36376 1
41048 36371 36370 1
41049 36370 36373 1
41050 36372 36371 un
41051 36371 36380 un
41052 36372 36377 un
41053 36374 36373 1
41054 36373 36425 1
41055 36373 36426 1
41056 36375 36374 un
41057 36374 36413 1
41058 36374 36427 1
41059 36376 36375 1
41060 36375 36412 1
41061 36375 36428 1
41062 36376 36429 1
41063 36376 36430 1
41064 36378 36377 un
41065 36377 36415 1
41066 36379 36378 un
41067 36378 36384 1
41068 36380 36379 un
41069 36379 36381 1
41070 36380 36414 1
41071 36382 36381 1
41072 36381 36417 2
41073 36383 36382 un
41074 36382 36388 un
41075 36384 36383 1
41076 36383 36385 1
41077 36384 36416 2
41078 36386 36385 1
41079 36385 36431 1
41080 36385 36432 1
41081 36387 36386 1
41082 36386 36433 1
41083 36386 36434 1
41084 36388 36387 un
41085 36387 36392 un
41086 36388 36389 un
41087 36390 36389 un
41088 36391 36390 un
41089 36390 36399 un
41090 36392 36391 un
41091 36391 36396 1
41092 36392 36393 1
41093 36394 36393 1
41094 36393 36435 1
41095 36393 36436 1
41096 36395 36394 1
41097 36394 36437 1
41098 36394 36438 1
41099 36396 36395 1
41100 36395 36439 1
41101 36395 36440 1
41102 36396 36397 1
41103 36396 36441 1
41104 36398 36397 1
41105 36397 36442 1
41106 36397 36443 1
41107 36399 36398 un
41108 36398 36403 un
41109 36399 36400 un
41110 36401 36400 un
41111 36400 36444 1
41112 36402 36401 un
41113 36401 36445 1
41114 36403 36402 un
41115 36402 36419 1
41116 36403 36418 1
41117 36404 36405 1
41118 36404 36446 1
41119 36404 36447 1
41120 36405 36448 1
41121 36405 36449 1
41122 36405 36450 1
41123 36406 36451 1
41124 36406 36452 1
41125 36406 36453 1
41126 36407 36454 1
41127 36407 36455 1
41128 36407 36456 1
41129 36408 36457 1
41130 36408 36458 1
41131 36408 36459 1
41132 36409 36460 1
41133 36409 36461 1
41134 36409 36462 1
41135 36410 36463 1
41136 36410 36464 1
41137 36410 36465 1
41138 36411 36466 1
41139 36412 36467 1
41140 36412 36468 1
41141 36412 36469 1
41142 36413 36470 1
41143 36413 36471 1
41144 36413 36472 1
41145 36414 36473 1
41146 36415 36474 1
41147 36418 36475 1
41148 36418 36476 1
41149 36418 36477 1
41150 36419 36478 1
41151 36419 36479 1
41152 36419 36480 1
41153 36481 36482 un
41154 36481 36486 un
41155 36481 36536 1
41156 36483 36482 un
41157 36482 36538 1
41158 36484 36483 un
41159 36483 36490 1
41160 36485 36484 un
41161 36484 36487 1
41162 36486 36485 un
41163 36485 36537 1
41164 36486 36534 1
41165 36488 36487 1
41166 36487 36550 1
41167 36487 36551 1
41168 36489 36488 un
41169 36488 36494 un
41170 36490 36489 1
41171 36489 36491 un
41172 36490 36552 1
41173 36490 36553 1
41174 36492 36491 un
41175 36491 36539 1
41176 36493 36492 un
41177 36492 36540 1
41178 36494 36493 un
41179 36493 36498 un
41180 36494 36495 un
41181 36496 36495 un
41182 36495 36554 1
41183 36497 36496 un
41184 36496 36502 un
41185 36498 36497 un
41186 36497 36499 1
41187 36498 36541 1
41188 36500 36499 1
41189 36499 36506 1
41190 36501 36500 1
41191 36500 36503 1
41192 36502 36501 un
41193 36501 36510 un
41194 36502 36507 un
41195 36504 36503 1
41196 36503 36555 1
41197 36503 36556 1
41198 36505 36504 un
41199 36504 36543 1
41200 36504 36557 1
41201 36506 36505 1
41202 36505 36542 1
41203 36505 36558 1
41204 36506 36559 1
41205 36506 36560 1
41206 36508 36507 un
41207 36507 36545 1
41208 36509 36508 un
41209 36508 36514 1
41210 36510 36509 un
41211 36509 36511 1
41212 36510 36544 1
41213 36512 36511 1
41214 36511 36547 2
41215 36513 36512 un
41216 36512 36518 un
41217 36514 36513 1
41218 36513 36515 1
41219 36514 36546 2
41220 36516 36515 1
41221 36515 36561 1
41222 36515 36562 1
41223 36517 36516 1
41224 36516 36563 1
41225 36516 36564 1
41226 36518 36517 un
41227 36517 36522 un
41228 36518 36519 un
41229 36520 36519 un
41230 36521 36520 un
41231 36520 36529 un
41232 36522 36521 un
41233 36521 36526 1
41234 36522 36523 1
41235 36524 36523 1
41236 36523 36565 1
41237 36523 36566 1
41238 36525 36524 1
41239 36524 36567 1
41240 36524 36568 1
41241 36526 36525 1
41242 36525 36569 1
41243 36525 36570 1
41244 36526 36527 1
41245 36526 36571 1
41246 36528 36527 1
41247 36527 36572 1
41248 36527 36573 1
41249 36529 36528 un
41250 36528 36533 un
41251 36529 36530 un
41252 36531 36530 un
41253 36530 36574 1
41254 36532 36531 un
41255 36531 36575 1
41256 36533 36532 un
41257 36532 36549 1
41258 36533 36548 1
41259 36534 36535 1
41260 36534 36576 1
41261 36534 36577 1
41262 36535 36578 1
41263 36535 36579 1
41264 36535 36580 1
41265 36536 36581 1
41266 36536 36582 1
41267 36536 36583 1
41268 36537 36584 1
41269 36537 36585 1
41270 36537 36586 1
41271 36538 36587 1
41272 36538 36588 1
41273 36538 36589 1
41274 36539 36590 1
41275 36539 36591 1
41276 36539 36592 1
41277 36540 36593 1
41278 36540 36594 1
41279 36540 36595 1
41280 36541 36596 1
41281 36542 36597 1
41282 36542 36598 1
41283 36542 36599 1
41284 36543 36600 1
41285 36543 36601 1
41286 36543 36602 1
41287 36544 36603 1
41288 36545 36604 1
41289 36548 36605 1
41290 36548 36606 1
41291 36548 36607 1
41292 36549 36608 1
41293 36549 36609 1
41294 36549 36610 1
41295 36611 36612 un
41296 36611 36616 un
41297 36611 36666 1
41298 36613 36612 un
41299 36612 36668 1
41300 36614 36613 un
41301 36613 36620 1
41302 36615 36614 un
41303 36614 36617 1
41304 36616 36615 un
41305 36615 36667 1
41306 36616 36664 1
41307 36618 36617 1
41308 36617 36680 1
41309 36617 36681 1
41310 36619 36618 un
41311 36618 36624 un
41312 36620 36619 1
41313 36619 36621 un
41314 36620 36682 1
41315 36620 36683 1
41316 36622 36621 un
41317 36621 36669 1
41318 36623 36622 un
41319 36622 36670 1
41320 36624 36623 un
41321 36623 36628 un
41322 36624 36625 un
41323 36626 36625 un
41324 36625 36684 1
41325 36627 36626 un
41326 36626 36632 un
41327 36628 36627 un
41328 36627 36629 1
41329 36628 36671 1
41330 36630 36629 1
41331 36629 36636 1
41332 36631 36630 1
41333 36630 36633 1
41334 36632 36631 un
41335 36631 36640 un
41336 36632 36637 un
41337 36634 36633 1
41338 36633 36685 1
41339 36633 36686 1
41340 36635 36634 un
41341 36634 36673 1
41342 36634 36687 1
41343 36636 36635 1
41344 36635 36672 1
41345 36635 36688 1
41346 36636 36689 1
41347 36636 36690 1
41348 36638 36637 un
41349 36637 36675 1
41350 36639 36638 un
41351 36638 36644 1
41352 36640 36639 un
41353 36639 36641 1
41354 36640 36674 1
41355 36642 36641 1
41356 36641 36677 2
41357 36643 36642 un
41358 36642 36648 un
41359 36644 36643 1
41360 36643 36645 1
41361 36644 36676 2
41362 36646 36645 1
41363 36645 36691 1
41364 36645 36692 1
41365 36647 36646 1
41366 36646 36693 1
41367 36646 36694 1
41368 36648 36647 un
41369 36647 36652 un
41370 36648 36649 un
41371 36650 36649 un
41372 36651 36650 un
41373 36650 36659 un
41374 36652 36651 un
41375 36651 36656 1
41376 36652 36653 1
41377 36654 36653 1
41378 36653 36695 1
41379 36653 36696 1
41380 36655 36654 1
41381 36654 36697 1
41382 36654 36698 1
41383 36656 36655 1
41384 36655 36699 1
41385 36655 36700 1
41386 36656 36657 1
41387 36656 36701 1
41388 36658 36657 1
41389 36657 36702 1
41390 36657 36703 1
41391 36659 36658 un
41392 36658 36663 un
41393 36659 36660 un
41394 36661 36660 un
41395 36660 36704 1
41396 36662 36661 un
41397 36661 36705 1
41398 36663 36662 un
41399 36662 36679 1
41400 36663 36678 1
41401 36664 36665 1
41402 36664 36706 1
41403 36664 36707 1
41404 36665 36708 1
41405 36665 36709 1
41406 36665 36710 1
41407 36666 36711 1
41408 36666 36712 1
41409 36666 36713 1
41410 36667 36714 1
41411 36667 36715 1
41412 36667 36716 1
41413 36668 36717 1
41414 36668 36718 1
41415 36668 36719 1
41416 36669 36720 1
41417 36669 36721 1
41418 36669 36722 1
41419 36670 36723 1
41420 36670 36724 1
41421 36670 36725 1
41422 36671 36726 1
41423 36672 36727 1
41424 36672 36728 1
41425 36672 36729 1
41426 36673 36730 1
41427 36673 36731 1
41428 36673 36732 1
41429 36674 36733 1
41430 36675 36734 1
41431 36678 36735 1
41432 36678 36736 1
41433 36678 36737 1
41434 36679 36738 1
41435 36679 36739 1
41436 36679 36740 1
41437 36741 36742 un
41438 36741 36746 un
41439 36741 36796 1
41440 36743 36742 un
41441 36742 36798 1
41442 36744 36743 un
41443 36743 36750 1
41444 36745 36744 un
41445 36744 36747 1
41446 36746 36745 un
41447 36745 36797 1
41448 36746 36794 1
41449 36748 36747 1
41450 36747 36810 1
41451 36747 36811 1
41452 36749 36748 un
41453 36748 36754 un
41454 36750 36749 1
41455 36749 36751 un
41456 36750 36812 1
41457 36750 36813 1
41458 36752 36751 un
41459 36751 36799 1
41460 36753 36752 un
41461 36752 36800 1
41462 36754 36753 un
41463 36753 36758 un
41464 36754 36755 un
41465 36756 36755 un
41466 36755 36814 1
41467 36757 36756 un
41468 36756 36762 un
41469 36758 36757 un
41470 36757 36759 1
41471 36758 36801 1
41472 36760 36759 1
41473 36759 36766 1
41474 36761 36760 1
41475 36760 36763 1
41476 36762 36761 un
41477 36761 36770 un
41478 36762 36767 un
41479 36764 36763 1
41480 36763 36815 1
41481 36763 36816 1
41482 36765 36764 un
41483 36764 36803 1
41484 36764 36817 1
41485 36766 36765 1
41486 36765 36802 1
41487 36765 36818 1
41488 36766 36819 1
41489 36766 36820 1
41490 36768 36767 un
41491 36767 36805 1
41492 36769 36768 un
41493 36768 36774 1
41494 36770 36769 un
41495 36769 36771 1
41496 36770 36804 1
41497 36772 36771 1
41498 36771 36807 2
41499 36773 36772 un
41500 36772 36778 un
41501 36774 36773 1
41502 36773 36775 1
41503 36774 36806 2
41504 36776 36775 1
41505 36775 36821 1
41506 36775 36822 1
41507 36777 36776 1
41508 36776 36823 1
41509 36776 36824 1
41510 36778 36777 un
41511 36777 36782 un
41512 36778 36779 un
41513 36780 36779 un
41514 36781 36780 un
41515 36780 36789 un
41516 36782 36781 un
41517 36781 36786 1
41518 36782 36783 1
41519 36784 36783 1
41520 36783 36825 1
41521 36783 36826 1
41522 36785 36784 1
41523 36784 36827 1
41524 36784 36828 1
41525 36786 36785 1
41526 36785 36829 1
41527 36785 36830 1
41528 36786 36787 1
41529 36786 36831 1
41530 36788 36787 1
41531 36787 36832 1
41532 36787 36833 1
41533 36789 36788 un
41534 36788 36793 un
41535 36789 36790 un
41536 36791 36790 un
41537 36790 36834 1
41538 36792 36791 un
41539 36791 36835 1
41540 36793 36792 un
41541 36792 36809 1
41542 36793 36808 1
41543 36794 36795 1
41544 36794 36836 1
41545 36794 36837 1
41546 36795 36838 1
41547 36795 36839 1
41548 36795 36840 1
41549 36796 36841 1
41550 36796 36842 1
41551 36796 36843 1
41552 36797 36844 1
41553 36797 36845 1
41554 36797 36846 1
41555 36798 36847 1
41556 36798 36848 1
41557 36798 36849 1
41558 36799 36850 1
41559 36799 36851 1
41560 36799 36852 1
41561 36800 36853 1
41562 36800 36854 1
41563 36800 36855 1
41564 36801 36856 1
41565 36802 36857 1
41566 36802 36858 1
41567 36802 36859 1
41568 36803 36860 1
41569 36803 36861 1
41570 36803 36862 1
41571 36804 36863 1
41572 36805 36864 1
41573 36808 36865 1
41574 36808 36866 1
41575 36808 36867 1
41576 36809 36868 1
41577 36809 36869 1
41578 36809 36870 1
41579 36871 36872 un
41580 36871 36876 un
41581 36871 36926 1
41582 36873 36872 un
41583 36872 36928 1
41584 36874 36873 un
41585 36873 36880 1
41586 36875 36874 un
41587 36874 36877 1
41588 36876 36875 un
41589 36875 36927 1
41590 36876 36924 1
41591 36878 36877 1
41592 36877 36940 1
41593 36877 36941 1
41594 36879 36878 un
41595 36878 36884 un
41596 36880 36879 1
41597 36879 36881 un
41598 36880 36942 1
41599 36880 36943 1
41600 36882 36881 un
41601 36881 36929 1
41602 36883 36882 un
41603 36882 36930 1
41604 36884 36883 un
41605 36883 36888 un
41606 36884 36885 un
41607 36886 36885 un
41608 36885 36944 1
41609 36887 36886 un
41610 36886 36892 un
41611 36888 36887 un
41612 36887 36889 1
41613 36888 36931 1
41614 36890 36889 1
41615 36889 36896 1
41616 36891 36890 1
41617 36890 36893 1
41618 36892 36891 un
41619 36891 36900 un
41620 36892 36897 un
41621 36894 36893 1
41622 36893 36945 1
41623 36893 36946 1
41624 36895 36894 un
41625 36894 36933 1
41626 36894 36947 1
41627 36896 36895 1
41628 36895 36932 1
41629 36895 36948 1
41630 36896 36949 1
41631 36896 36950 1
41632 36898 36897 un
41633 36897 36935 1
41634 36899 36898 un
41635 36898 36904 1
41636 36900 36899 un
41637 36899 36901 1
41638 36900 36934 1
41639 36902 36901 1
41640 36901 36937 2
41641 36903 36902 un
41642 36902 36908 un
41643 36904 36903 1
41644 36903 36905 1
41645 36904 36936 2
41646 36906 36905 1
41647 36905 36951 1
41648 36905 36952 1
41649 36907 36906 1
41650 36906 36953 1
41651 36906 36954 1
41652 36908 36907 un
41653 36907 36912 un
41654 36908 36909 un
41655 36910 36909 un
41656 36911 36910 un
41657 36910 36919 un
41658 36912 36911 un
41659 36911 36916 1
41660 36912 36913 1
41661 36914 36913 1
41662 36913 36955 1
41663 36913 36956 1
41664 36915 36914 1
41665 36914 36957 1
41666 36914 36958 1
41667 36916 36915 1
41668 36915 36959 1
41669 36915 36960 1
41670 36916 36917 1
41671 36916 36961 1
41672 36918 36917 1
41673 36917 36962 1
41674 36917 36963 1
41675 36919 36918 un
41676 36918 36923 un
41677 36919 36920 un
41678 36921 36920 un
41679 36920 36964 1
41680 36922 36921 un
41681 36921 36965 1
41682 36923 36922 un
41683 36922 36939 1
41684 36923 36938 1
41685 36924 36925 1
41686 36924 36966 1
41687 36924 36967 1
41688 36925 36968 1
41689 36925 36969 1
41690 36925 36970 1
41691 36926 36971 1
41692 36926 36972 1
41693 36926 36973 1
41694 36927 36974 1
41695 36927 36975 1
41696 36927 36976 1
41697 36928 36977 1
41698 36928 36978 1
41699 36928 36979 1
41700 36929 36980 1
41701 36929 36981 1
41702 36929 36982 1
41703 36930 36983 1
41704 36930 36984 1
41705 36930 36985 1
41706 36931 36986 1
41707 36932 36987 1
41708 36932 36988 1
41709 36932 36989 1
41710 36933 36990 1
41711 36933 36991 1
41712 36933 36992 1
41713 36934 36993 1
41714 36935 36994 1
41715 36938 36995 1
41716 36938 36996 1
41717 36938 36997 1
41718 36939 36998 1
41719 36939 36999 1
41720 36939 37000 1
41721 37001 37002 un
41722 37001 37006 un
41723 37001 37056 1
41724 37003 37002 un
41725 37002 37058 1
41726 37004 37003 un
41727 37003 37010 1
41728 37005 37004 un
41729 37004 37007 1
41730 37006 37005 un
41731 37005 37057 1
41732 37006 37054 1
41733 37008 37007 1
41734 37007 37070 1
41735 37007 37071 1
41736 37009 37008 un
41737 37008 37014 un
41738 37010 37009 1
41739 37009 37011 un
41740 37010 37072 1
41741 37010 37073 1
41742 37012 37011 un
41743 37011 37059 1
41744 37013 37012 un
41745 37012 37060 1
41746 37014 37013 un
41747 37013 37018 un
41748 37014 37015 un
41749 37016 37015 un
41750 37015 37074 1
41751 37017 37016 un
41752 37016 37022 un
41753 37018 37017 un
41754 37017 37019 1
41755 37018 37061 1
41756 37020 37019 1
41757 37019 37026 1
41758 37021 37020 1
41759 37020 37023 1
41760 37022 37021 un
41761 37021 37030 un
41762 37022 37027 un
41763 37024 37023 1
41764 37023 37075 1
41765 37023 37076 1
41766 37025 37024 un
41767 37024 37063 1
41768 37024 37077 1
41769 37026 37025 1
41770 37025 37062 1
41771 37025 37078 1
41772 37026 37079 1
41773 37026 37080 1
41774 37028 37027 un
41775 37027 37065 1
41776 37029 37028 un
41777 37028 37034 1
41778 37030 37029 un
41779 37029 37031 1
41780 37030 37064 1
41781 37032 37031 1
41782 37031 37067 2
41783 37033 37032 un
41784 37032 37038 un
41785 37034 37033 1
41786 37033 37035 1
41787 37034 37066 2
41788 37036 37035 1
41789 37035 37081 1
41790 37035 37082 1
41791 37037 37036 1
41792 37036 37083 1
41793 37036 37084 1
41794 37038 37037 un
41795 37037 37042 un
41796 37038 37039 un
41797 37040 37039 un
41798 37041 37040 un
41799 37040 37049 un
41800 37042 37041 un
41801 37041 37046 1
41802 37042 37043 1
41803 37044 37043 1
41804 37043 37085 1
41805 37043 37086 1
41806 37045 37044 1
41807 37044 37087 1
41808 37044 37088 1
41809 37046 37045 1
41810 37045 37089 1
41811 37045 37090 1
41812 37046 37047 1
41813 37046 37091 1
41814 37048 37047 1
41815 37047 37092 1
41816 37047 37093 1
41817 37049 37048 un
41818 37048 37053 un
41819 37049 37050 un
41820 37051 37050 un
41821 37050 37094 1
41822 37052 37051 un
41823 37051 37095 1
41824 37053 37052 un
41825 37052 37069 1
41826 37053 37068 1
41827 37054 37055 1
41828 37054 37096 1
41829 37054 37097 1
41830 37055 37098 1
41831 37055 37099 1
41832 37055 37100 1
41833 37056 37101 1
41834 37056 37102 1
41835 37056 37103 1
41836 37057 37104 1
41837 37057 37105 1
41838 37057 37106 1
41839 37058 37107 1
41840 37058 37108 1
41841 37058 37109 1
41842 37059 37110 1
41843 37059 37111 1
41844 37059 37112 1
41845 37060 37113 1
41846 37060 37114 1
41847 37060 37115 1
41848 37061 37116 1
41849 37062 37117 1
41850 37062 37118 1
41851 37062 37119 1
41852 37063 37120 1
41853 37063 37121 1
41854 37063 37122 1
41855 37064 37123 1
41856 37065 37124 1
41857 37068 37125 1
41858 37068 37126 1
41859 37068 37127 1
41860 37069 37128 1
41861 37069 37129 1
41862 37069 37130 1
41863 37131 37132 un
41864 37131 37136 un
41865 37131 37186 1
41866 37133 37132 un
41867 37132 37188 1
41868 37134 37133 un
41869 37133 37140 1
41870 37135 37134 un
41871 37134 37137 1
41872 37136 37135 un
41873 37135 37187 1
41874 37136 37184 1
41875 37138 37137 1
41876 37137 37200 1
41877 37137 37201 1
41878 37139 37138 un
41879 37138 37144 un
41880 37140 37139 1
41881 37139 37141 un
41882 37140 37202 1
41883 37140 37203 1
41884 37142 37141 un
41885 37141 37189 1
41886 37143 37142 un
41887 37142 37190 1
41888 37144 37143 un
41889 37143 37148 un
41890 37144 37145 un
41891 37146 37145 un
41892 37145 37204 1
41893 37147 37146 un
41894 37146 37152 un
41895 37148 37147 un
41896 37147 37149 1
41897 37148 37191 1
41898 37150 37149 1
41899 37149 37156 1
41900 37151 37150 1
41901 37150 37153 1
41902 37152 37151 un
41903 37151 37160 un
41904 37152 37157 un
41905 37154 37153 1
41906 37153 37205 1
41907 37153 37206 1
41908 37155 37154 un
41909 37154 37193 1
41910 37154 37207 1
41911 37156 37155 1
41912 37155 37192 1
41913 37155 37208 1
41914 37156 37209 1
41915 37156 37210 1
41916 37158 37157 un
41917 37157 37195 1
41918 37159 37158 un
41919 37158 37164 1
41920 37160 37159 un
41921 37159 37161 1
41922 37160 37194 1
41923 37162 37161 1
41924 37161 37197 2
41925 37163 37162 un
41926 37162 37168 un
41927 37164 37163 1
41928 37163 37165 1
41929 37164 37196 2
41930 37166 37165 1
41931 37165 37211 1
41932 37165 37212 1
41933 37167 37166 1
41934 37166 37213 1
41935 37166 37214 1
41936 37168 37167 un
41937 37167 37172 un
41938 37168 37169 un
41939 37170 37169 un
41940 37171 37170 un
41941 37170 37179 un
41942 37172 37171 un
41943 37171 37176 1
41944 37172 37173 1
41945 37174 37173 1
41946 37173 37215 1
41947 37173 37216 1
41948 37175 37174 1
41949 37174 37217 1
41950 37174 37218 1
41951 37176 37175 1
41952 37175 37219 1
41953 37175 37220 1
41954 37176 37177 1
41955 37176 37221 1
41956 37178 37177 1
41957 37177 37222 1
41958 37177 37223 1
41959 37179 37178 un
41960 37178 37183 un
41961 37179 37180 un
41962 37181 37180 un
41963 37180 37224 1
41964 37182 37181 un
41965 37181 37225 1
41966 37183 37182 un
41967 37182 37199 1
41968 37183 37198 1
41969 37184 37185 1
41970 37184 37226 1
41971 37184 37227 1
41972 37185 37228 1
41973 37185 37229 1
41974 37185 37230 1
41975 37186 37231 1
41976 37186 37232 1
41977 37186 37233 1
41978 37187 37234 1
41979 37187 37235 1
41980 37187 37236 1
41981 37188 37237 1
41982 37188 37238 1
41983 37188 37239 1
41984 37189 37240 1
41985 37189 37241 1
41986 37189 37242 1
41987 37190 37243 1
41988 37190 37244 1
41989 37190 37245 1
41990 37191 37246 1
41991 37192 37247 1
41992 37192 37248 1
41993 37192 37249 1
41994 37193 37250 1
41995 37193 37251 1
41996 37193 37252 1
41997 37194 37253 1
41998 37195 37254 1
41999 37198 37255 1
42000 37198 37256 1
42001 37198 37257 1
42002 37199 37258 1
42003 37199 37259 1
42004 37199 37260 1
42005 37261 37262 un
42006 37261 37266 un
42007 37261 37316 1
42008 37263 37262 un
42009 37262 37318 1
42010 37264 37263 un
42011 37263 37270 1
42012 37265 37264 un
42013 37264 37267 1
42014 37266 37265 un
42015 37265 37317 1
42016 37266 37314 1
42017 37268 37267 1
42018 37267 37330 1
42019 37267 37331 1
42020 37269 37268 un
42021 37268 37274 un
42022 37270 37269 1
42023 37269 37271 un
42024 37270 37332 1
42025 37270 37333 1
42026 37272 37271 un
42027 37271 37319 1
42028 37273 37272 un
42029 37272 37320 1
42030 37274 37273 un
42031 37273 37278 un
42032 37274 37275 un
42033 37276 37275 un
42034 37275 37334 1
42035 37277 37276 un
42036 37276 37282 un
42037 37278 37277 un
42038 37277 37279 1
42039 37278 37321 1
42040 37280 37279 1
42041 37279 37286 1
42042 37281 37280 1
42043 37280 37283 1
42044 37282 37281 un
42045 37281 37290 un
42046 37282 37287 un
42047 37284 37283 1
42048 37283 37335 1
42049 37283 37336 1
42050 37285 37284 un
42051 37284 37323 1
42052 37284 37337 1
42053 37286 37285 1
42054 37285 37322 1
42055 37285 37338 1
42056 37286 37339 1
42057 37286 37340 1
42058 37288 37287 un
42059 37287 37325 1
42060 37289 37288 un
42061 37288 37294 1
42062 37290 37289 un
42063 37289 37291 1
42064 37290 37324 1
42065 37292 37291 1
42066 37291 37327 2
42067 37293 37292 un
42068 37292 37298 un
42069 37294 37293 1
42070 37293 37295 1
42071 37294 37326 2
42072 37296 37295 1
42073 37295 37341 1
42074 37295 37342 1
42075 37297 37296 1
42076 37296 37343 1
42077 37296 37344 1
42078 37298 37297 un
42079 37297 37302 un
42080 37298 37299 un
42081 37300 37299 un
42082 37301 37300 un
42083 37300 37309 un
42084 37302 37301 un
42085 37301 37306 1
42086 37302 37303 1
42087 37304 37303 1
42088 37303 37345 1
42089 37303 37346 1
42090 37305 37304 1
42091 37304 37347 1
42092 37304 37348 1
42093 37306 37305 1
42094 37305 37349 1
42095 37305 37350 1
42096 37306 37307 1
42097 37306 37351 1
42098 37308 37307 1
42099 37307 37352 1
42100 37307 37353 1
42101 37309 37308 un
42102 37308 37313 un
42103 37309 37310 un
42104 37311 37310 un
42105 37310 37354 1
42106 37312 37311 un
42107 37311 37355 1
42108 37313 37312 un
42109 37312 37329 1
42110 37313 37328 1
42111 37314 37315 1
42112 37314 37356 1
42113 37314 37357 1
42114 37315 37358 1
42115 37315 37359 1
42116 37315 37360 1
42117 37316 37361 1
42118 37316 37362 1
42119 37316 37363 1
42120 37317 37364 1
42121 37317 37365 1
42122 37317 37366 1
42123 37318 37367 1
42124 37318 37368 1
42125 37318 37369 1
42126 37319 37370 1
42127 37319 37371 1
42128 37319 37372 1
42129 37320 37373 1
42130 37320 37374 1
42131 37320 37375 1
42132 37321 37376 1
42133 37322 37377 1
42134 37322 37378 1
42135 37322 37379 1
42136 37323 37380 1
42137 37323 37381 1
42138 37323 37382 1
42139 37324 37383 1
42140 37325 37384 1
42141 37328 37385 1
42142 37328 37386 1
42143 37328 37387 1
42144 37329 37388 1
42145 37329 37389 1
42146 37329 37390 1
42147 37391 37392 un
42148 37391 37396 un
42149 37391 37446 1
42150 37393 37392 un
42151 37392 37448 1
42152 37394 37393 un
42153 37393 37400 1
42154 37395 37394 un
42155 37394 37397 1
42156 37396 37395 un
42157 37395 37447 1
42158 37396 37444 1
42159 37398 37397 1
42160 37397 37460 1
42161 37397 37461 1
42162 37399 37398 un
42163 37398 37404 un
42164 37400 37399 1
42165 37399 37401 un
42166 37400 37462 1
42167 37400 37463 1
42168 37402 37401 un
42169 37401 37449 1
42170 37403 37402 un
42171 37402 37450 1
42172 37404 37403 un
42173 37403 37408 un
42174 37404 37405 un
42175 37406 37405 un
42176 37405 37464 1
42177 37407 37406 un
42178 37406 37412 un
42179 37408 37407 un
42180 37407 37409 1
42181 37408 37451 1
42182 37410 37409 1
42183 37409 37416 1
42184 37411 37410 1
42185 37410 37413 1
42186 37412 37411 un
42187 37411 37420 un
42188 37412 37417 un
42189 37414 37413 1
42190 37413 37465 1
42191 37413 37466 1
42192 37415 37414 un
42193 37414 37453 1
42194 37414 37467 1
42195 37416 37415 1
42196 37415 37452 1
42197 37415 37468 1
42198 37416 37469 1
42199 37416 37470 1
42200 37418 37417 un
42201 37417 37455 1
42202 37419 37418 un
42203 37418 37424 1
42204 37420 37419 un
42205 37419 37421 1
42206 37420 37454 1
42207 37422 37421 1
42208 37421 37457 2
42209 37423 37422 un
42210 37422 37428 un
42211 37424 37423 1
42212 37423 37425 1
42213 37424 37456 2
42214 37426 37425 1
42215 37425 37471 1
42216 37425 37472 1
42217 37427 37426 1
42218 37426 37473 1
42219 37426 37474 1
42220 37428 37427 un
42221 37427 37432 un
42222 37428 37429 un
42223 37430 37429 un
42224 37431 37430 un
42225 37430 37439 un
42226 37432 37431 un
42227 37431 37436 1
42228 37432 37433 1
42229 37434 37433 1
42230 37433 37475 1
42231 37433 37476 1
42232 37435 37434 1
42233 37434 37477 1
42234 37434 37478 1
42235 37436 37435 1
42236 37435 37479 1
42237 37435 37480 1
42238 37436 37437 1
42239 37436 37481 1
42240 37438 37437 1
42241 37437 37482 1
42242 37437 37483 1
42243 37439 37438 un
42244 37438 37443 un
42245 37439 37440 un
42246 37441 37440 un
42247 37440 37484 1
42248 37442 37441 un
42249 37441 37485 1
42250 37443 37442 un
42251 37442 37459 1
42252 37443 37458 1
42253 37444 37445 1
42254 37444 37486 1
42255 37444 37487 1
42256 37445 37488 1
42257 37445 37489 1
42258 37445 37490 1
42259 37446 37491 1
42260 37446 37492 1
42261 37446 37493 1
42262 37447 37494 1
42263 37447 37495 1
42264 37447 37496 1
42265 37448 37497 1
42266 37448 37498 1
42267 37448 37499 1
42268 37449 37500 1
42269 37449 37501 1
42270 37449 37502 1
42271 37450 37503 1
42272 37450 37504 1
42273 37450 37505 1
42274 37451 37506 1
42275 37452 37507 1
42276 37452 37508 1
42277 37452 37509 1
42278 37453 37510 1
42279 37453 37511 1
42280 37453 37512 1
42281 37454 37513 1
42282 37455 37514 1
42283 37458 37515 1
42284 37458 37516 1
42285 37458 37517 1
42286 37459 37518 1
42287 37459 37519 1
42288 37459 37520 1
42289 37521 37522 un
42290 37521 37526 un
42291 37521 37576 1
42292 37523 37522 un
42293 37522 37578 1
42294 37524 37523 un
42295 37523 37530 1
42296 37525 37524 un
42297 37524 37527 1
42298 37526 37525 un
42299 37525 37577 1
42300 37526 37574 1
42301 37528 37527 1
42302 37527 37590 1
42303 37527 37591 1
42304 37529 37528 un
42305 37528 37534 un
42306 37530 37529 1
42307 37529 37531 un
42308 37530 37592 1
42309 37530 37593 1
42310 37532 37531 un
42311 37531 37579 1
42312 37533 37532 un
42313 37532 37580 1
42314 37534 37533 un
42315 37533 37538 un
42316 37534 37535 un
42317 37536 37535 un
42318 37535 37594 1
42319 37537 37536 un
42320 37536 37542 un
42321 37538 37537 un
42322 37537 37539 1
42323 37538 37581 1
42324 37540 37539 1
42325 37539 37546 1
42326 37541 37540 1
42327 37540 37543 1
42328 37542 37541 un
42329 37541 37550 un
42330 37542 37547 un
42331 37544 37543 1
42332 37543 37595 1
42333 37543 37596 1
42334 37545 37544 un
42335 37544 37583 1
42336 37544 37597 1
42337 37546 37545 1
42338 37545 37582 1
42339 37545 37598 1
42340 37546 37599 1
42341 37546 37600 1
42342 37548 37547 un
42343 37547 37585 1
42344 37549 37548 un
42345 37548 37554 1
42346 37550 37549 un
42347 37549 37551 1
42348 37550 37584 1
42349 37552 37551 1
42350 37551 37587 2
42351 37553 37552 un
42352 37552 37558 un
42353 37554 37553 1
42354 37553 37555 1
42355 37554 37586 2
42356 37556 37555 1
42357 37555 37601 1
42358 37555 37602 1
42359 37557 37556 1
42360 37556 37603 1
42361 37556 37604 1
42362 37558 37557 un
42363 37557 37562 un
42364 37558 37559 un
42365 37560 37559 un
42366 37561 37560 un
42367 37560 37569 un
42368 37562 37561 un
42369 37561 37566 1
42370 37562 37563 1
42371 37564 37563 1
42372 37563 37605 1
42373 37563 37606 1
42374 37565 37564 1
42375 37564 37607 1
42376 37564 37608 1
42377 37566 37565 1
42378 37565 37609 1
42379 37565 37610 1
42380 37566 37567 1
42381 37566 37611 1
42382 37568 37567 1
42383 37567 37612 1
42384 37567 37613 1
42385 37569 37568 un
42386 37568 37573 un
42387 37569 37570 un
42388 37571 37570 un
42389 37570 37614 1
42390 37572 37571 un
42391 37571 37615 1
42392 37573 37572 un
42393 37572 37589 1
42394 37573 37588 1
42395 37574 37575 1
42396 37574 37616 1
42397 37574 37617 1
42398 37575 37618 1
42399 37575 37619 1
42400 37575 37620 1
42401 37576 37621 1
42402 37576 37622 1
42403 37576 37623 1
42404 37577 37624 1
42405 37577 37625 1
42406 37577 37626 1
42407 37578 37627 1
42408 37578 37628 1
42409 37578 37629 1
42410 37579 37630 1
42411 37579 37631 1
42412 37579 37632 1
42413 37580 37633 1
42414 37580 37634 1
42415 37580 37635 1
42416 37581 37636 1
42417 37582 37637 1
42418 37582 37638 1
42419 37582 37639 1
42420 37583 37640 1
42421 37583 37641 1
42422 37583 37642 1
42423 37584 37643 1
42424 37585 37644 1
42425 37588 37645 1
42426 37588 37646 1
42427 37588 37647 1
42428 37589 37648 1
42429 37589 37649 1
42430 37589 37650 1
42431 37651 37652 un
42432 37651 37656 un
42433 37651 37706 1
42434 37653 37652 un
42435 37652 37708 1
42436 37654 37653 un
42437 37653 37660 1
42438 37655 37654 un
42439 37654 37657 1
42440 37656 37655 un
42441 37655 37707 1
42442 37656 37704 1
42443 37658 37657 1
42444 37657 37720 1
42445 37657 37721 1
42446 37659 37658 un
42447 37658 37664 un
42448 37660 37659 1
42449 37659 37661 un
42450 37660 37722 1
42451 37660 37723 1
42452 37662 37661 un
42453 37661 37709 1
42454 37663 37662 un
42455 37662 37710 1
42456 37664 37663 un
42457 37663 37668 un
42458 37664 37665 un
42459 37666 37665 un
42460 37665 37724 1
42461 37667 37666 un
42462 37666 37672 un
42463 37668 37667 un
42464 37667 37669 1
42465 37668 37711 1
42466 37670 37669 1
42467 37669 37676 1
42468 37671 37670 1
42469 37670 37673 1
42470 37672 37671 un
42471 37671 37680 un
42472 37672 37677 un
42473 37674 37673 1
42474 37673 37725 1
42475 37673 37726 1
42476 37675 37674 un
42477 37674 37713 1
42478 37674 37727 1
42479 37676 37675 1
42480 37675 37712 1
42481 37675 37728 1
42482 37676 37729 1
42483 37676 37730 1
42484 37678 37677 un
42485 37677 37715 1
42486 37679 37678 un
42487 37678 37684 1
42488 37680 37679 un
42489 37679 37681 1
42490 37680 37714 1
42491 37682 37681 1
42492 37681 37717 2
42493 37683 37682 un
42494 37682 37688 un
42495 37684 37683 1
42496 37683 37685 1
42497 37684 37716 2
42498 37686 37685 1
42499 37685 37731 1
42500 37685 37732 1
42501 37687 37686 1
42502 37686 37733 1
42503 37686 37734 1
42504 37688 37687 un
42505 37687 37692 un
42506 37688 37689 un
42507 37690 37689 un
42508 37691 37690 un
42509 37690 37699 un
42510 37692 37691 un
42511 37691 37696 1
42512 37692 37693 1
42513 37694 37693 1
42514 37693 37735 1
42515 37693 37736 1
42516 37695 37694 1
42517 37694 37737 1
42518 37694 37738 1
42519 37696 37695 1
42520 37695 37739 1
42521 37695 37740 1
42522 37696 37697 1
42523 37696 37741 1
42524 37698 37697 1
42525 37697 37742 1
42526 37697 37743 1
42527 37699 37698 un
42528 37698 37703 un
42529 37699 37700 un
42530 37701 37700 un
42531 37700 37744 1
42532 37702 37701 un
42533 37701 37745 1
42534 37703 37702 un
42535 37702 37719 1
42536 37703 37718 1
42537 37704 37705 1
42538 37704 37746 1
42539 37704 37747 1
42540 37705 37748 1
42541 37705 37749 1
42542 37705 37750 1
42543 37706 37751 1
42544 37706 37752 1
42545 37706 37753 1
42546 37707 37754 1
42547 37707 37755 1
42548 37707 37756 1
42549 37708 37757 1
42550 37708 37758 1
42551 37708 37759 1
42552 37709 37760 1
42553 37709 37761 1
42554 37709 37762 1
42555 37710 37763 1
42556 37710 37764 1
42557 37710 37765 1
42558 37711 37766 1
42559 37712 37767 1
42560 37712 37768 1
42561 37712 37769 1
42562 37713 37770 1
42563 37713 37771 1
42564 37713 37772 1
42565 37714 37773 1
42566 37715 37774 1
42567 37718 37775 1
42568 37718 37776 1
42569 37718 37777 1
42570 37719 37778 1
42571 37719 37779 1
42572 37719 37780 1
42573 37781 37782 un
42574 37781 37786 un
42575 37781 37836 1
42576 37783 37782 un
42577 37782 37838 1
42578 37784 37783 un
42579 37783 37790 1
42580 37785 37784 un
42581 37784 37787 1
42582 37786 37785 un
42583 37785 37837 1
42584 37786 37834 1
42585 37788 37787 1
42586 37787 37850 1
42587 37787 37851 1
42588 37789 37788 un
42589 37788 37794 un
42590 37790 37789 1
42591 37789 37791 un
42592 37790 37852 1
42593 37790 37853 1
42594 37792 37791 un
42595 37791 37839 1
42596 37793 37792 un
42597 37792 37840 1
42598 37794 37793 un
42599 37793 37798 un
42600 37794 37795 un
42601 37796 37795 un
42602 37795 37854 1
42603 37797 37796 un
42604 37796 37802 un
42605 37798 37797 un
42606 37797 37799 1
42607 37798 37841 1
42608 37800 37799 1
42609 37799 37806 1
42610 37801 37800 1
42611 37800 37803 1
42612 37802 37801 un
42613 37801 37810 un
42614 37802 37807 un
42615 37804 37803 1
42616 37803 37855 1
42617 37803 37856 1
42618 37805 37804 un
42619 37804 37843 1
42620 37804 37857 1
42621 37806 37805 1
42622 37805 37842 1
42623 37805 37858 1
42624 37806 37859 1
42625 37806 37860 1
42626 37808 37807 un
42627 37807 37845 1
42628 37809 37808 un
42629 37808 37814 1
42630 37810 37809 un
42631 37809 37811 1
42632 37810 37844 1
42633 37812 37811 1
42634 37811 37847 2
42635 37813 37812 un
42636 37812 37818 un
42637 37814 37813 1
42638 37813 37815 1
42639 37814 37846 2
42640 37816 37815 1
42641 37815 37861 1
42642 37815 37862 1
42643 37817 37816 1
42644 37816 37863 1
42645 37816 37864 1
42646 37818 37817 un
42647 37817 37822 un
42648 37818 37819 un
42649 37820 37819 un
42650 37821 37820 un
42651 37820 37829 un
42652 37822 37821 un
42653 37821 37826 1
42654 37822 37823 1
42655 37824 37823 1
42656 37823 37865 1
42657 37823 37866 1
42658 37825 37824 1
42659 37824 37867 1
42660 37824 37868 1
42661 37826 37825 1
42662 37825 37869 1
42663 37825 37870 1
42664 37826 37827 1
42665 37826 37871 1
42666 37828 37827 1
42667 37827 37872 1
42668 37827 37873 1
42669 37829 37828 un
42670 37828 37833 un
42671 37829 37830 un
42672 37831 37830 un
42673 37830 37874 1
42674 37832 37831 un
42675 37831 37875 1
42676 37833 37832 un
42677 37832 37849 1
42678 37833 37848 1
42679 37834 37835 1
42680 37834 37876 1
42681 37834 37877 1
42682 37835 37878 1
42683 37835 37879 1
42684 37835 37880 1
42685 37836 37881 1
42686 37836 37882 1
42687 37836 37883 1
42688 37837 37884 1
42689 37837 37885 1
42690 37837 37886 1
42691 37838 37887 1
42692 37838 37888 1
42693 37838 37889 1
42694 37839 37890 1
42695 37839 37891 1
42696 37839 37892 1
42697 37840 37893 1
42698 37840 37894 1
42699 37840 37895 1
42700 37841 37896 1
42701 37842 37897 1
42702 37842 37898 1
42703 37842 37899 1
42704 37843 37900 1
42705 37843 37901 1
42706 37843 37902 1
42707 37844 37903 1
42708 37845 37904 1
42709 37848 37905 1
42710 37848 37906 1
42711 37848 37907 1
42712 37849 37908 1
42713 37849 37909 1
42714 37849 37910 1
42715 37911 37912 un
42716 37911 37916 un
42717 37911 37966 1
42718 37913 37912 un
42719 37912 37968 1
42720 37914 37913 un
42721 37913 37920 1
42722 37915 37914 un
42723 37914 37917 1
42724 37916 37915 un
42725 37915 37967 1
42726 37916 37964 1
42727 37918 37917 1
42728 37917 37980 1
42729 37917 37981 1
42730 37919 37918 un
42731 37918 37924 un
42732 37920 37919 1
42733 37919 37921 un
42734 37920 37982 1
42735 37920 37983 1
42736 37922 37921 un
42737 37921 37969 1
42738 37923 37922 un
42739 37922 37970 1
42740 37924 37923 un
42741 37923 37928 un
42742 37924 37925 un
42743 37926 37925 un
42744 37925 37984 1
42745 37927 37926 un
42746 37926 37932 un
42747 37928 37927 un
42748 37927 37929 1
42749 37928 37971 1
42750 37930 37929 1
42751 37929 37936 1
42752 37931 37930 1
42753 37930 37933 1
42754 37932 37931 un
42755 37931 37940 un
42756 37932 37937 un
42757 37934 37933 1
42758 37933 37985 1
42759 37933 37986 1
42760 37935 37934 un
42761 37934 37973 1
42762 37934 37987 1
42763 37936 37935 1
42764 37935 37972 1
42765 37935 37988 1
42766 37936 37989 1
42767 37936 37990 1
42768 37938 37937 un
42769 37937 37975 1
42770 37939 37938 un
42771 37938 37944 1
42772 37940 37939 un
42773 37939 37941 1
42774 37940 37974 1
42775 37942 37941 1
42776 37941 37977 2
42777 37943 37942 un
42778 37942 37948 un
42779 37944 37943 1
42780 37943 37945 1
42781 37944 37976 2
42782 37946 37945 1
42783 37945 37991 1
42784 37945 37992 1
42785 37947 37946 1
42786 37946 37993 1
42787 37946 37994 1
42788 37948 37947 un
42789 37947 37952 un
42790 37948 37949 un
42791 37950 37949 un
42792 37951 37950 un
42793 37950 37959 un
42794 37952 37951 un
42795 37951 37956 1
42796 37952 37953 1
42797 37954 37953 1
42798 37953 37995 1
42799 37953 37996 1
42800 37955 37954 1
42801 37954 37997 1
42802 37954 37998 1
42803 37956 37955 1
42804 37955 37999 1
42805 37955 38000 1
42806 37956 37957 1
42807 37956 38001 1
42808 37958 37957 1
42809 37957 38002 1
42810 37957 38003 1
42811 37959 37958 un
42812 37958 37963 un
42813 37959 37960 un
42814 37961 37960 un
42815 37960 38004 1
42816 37962 37961 un
42817 37961 38005 1
42818 37963 37962 un
42819 37962 37979 1
42820 37963 37978 1
42821 37964 37965 1
42822 37964 38006 1
42823 37964 38007 1
42824 37965 38008 1
42825 37965 38009 1
42826 37965 38010 1
42827 37966 38011 1
42828 37966 38012 1
42829 37966 38013 1
42830 37967 38014 1
42831 37967 38015 1
42832 37967 38016 1
42833 37968 38017 1
42834 37968 38018 1
42835 37968 38019 1
42836 37969 38020 1
42837 37969 38021 1
42838 37969 38022 1
42839 37970 38023 1
42840 37970 38024 1
42841 37970 38025 1
42842 37971 38026 1
42843 37972 38027 1
42844 37972 38028 1
42845 37972 38029 1
42846 37973 38030 1
42847 37973 38031 1
42848 37973 38032 1
42849 37974 38033 1
42850 37975 38034 1
42851 37978 38035 1
42852 37978 38036 1
42853 37978 38037 1
42854 37979 38038 1
42855 37979 38039 1
42856 37979 38040 1
42857 38041 38042 un
42858 38041 38046 un
42859 38041 38096 1
42860 38043 38042 un
42861 38042 38098 1
42862 38044 38043 un
42863 38043 38050 1
42864 38045 38044 un
42865 38044 38047 1
42866 38046 38045 un
42867 38045 38097 1
42868 38046 38094 1
42869 38048 38047 1
42870 38047 38110 1
42871 38047 38111 1
42872 38049 38048 un
42873 38048 38054 un
42874 38050 38049 1
42875 38049 38051 un
42876 38050 38112 1
42877 38050 38113 1
42878 38052 38051 un
42879 38051 38099 1
42880 38053 38052 un
42881 38052 38100 1
42882 38054 38053 un
42883 38053 38058 un
42884 38054 38055 un
42885 38056 38055 un
42886 38055 38114 1
42887 38057 38056 un
42888 38056 38062 un
42889 38058 38057 un
42890 38057 38059 1
42891 38058 38101 1
42892 38060 38059 1
42893 38059 38066 1
42894 38061 38060 1
42895 38060 38063 1
42896 38062 38061 un
42897 38061 38070 un
42898 38062 38067 un
42899 38064 38063 1
42900 38063 38115 1
42901 38063 38116 1
42902 38065 38064 un
42903 38064 38103 1
42904 38064 38117 1
42905 38066 38065 1
42906 38065 38102 1
42907 38065 38118 1
42908 38066 38119 1
42909 38066 38120 1
42910 38068 38067 un
42911 38067 38105 1
42912 38069 38068 un
42913 38068 38074 1
42914 38070 38069 un
42915 38069 38071 1
42916 38070 38104 1
42917 38072 38071 1
42918 38071 38107 2
42919 38073 38072 un
42920 38072 38078 un
42921 38074 38073 1
42922 38073 38075 1
42923 38074 38106 2
42924 38076 38075 1
42925 38075 38121 1
42926 38075 38122 1
42927 38077 38076 1
42928 38076 38123 1
42929 38076 38124 1
42930 38078 38077 un
42931 38077 38082 un
42932 38078 38079 un
42933 38080 38079 un
42934 38081 38080 un
42935 38080 38089 un
42936 38082 38081 un
42937 38081 38086 1
42938 38082 38083 1
42939 38084 38083 1
42940 38083 38125 1
42941 38083 38126 1
42942 38085 38084 1
42943 38084 38127 1
42944 38084 38128 1
42945 38086 38085 1
42946 38085 38129 1
42947 38085 38130 1
42948 38086 38087 1
42949 38086 38131 1
42950 38088 38087 1
42951 38087 38132 1
42952 38087 38133 1
42953 38089 38088 un
42954 38088 38093 un
42955 38089 38090 un
42956 38091 38090 un
42957 38090 38134 1
42958 38092 38091 un
42959 38091 38135 1
42960 38093 38092 un
42961 38092 38109 1
42962 38093 38108 1
42963 38094 38095 1
42964 38094 38136 1
42965 38094 38137 1
42966 38095 38138 1
42967 38095 38139 1
42968 38095 38140 1
42969 38096 38141 1
42970 38096 38142 1
42971 38096 38143 1
42972 38097 38144 1
42973 38097 38145 1
42974 38097 38146 1
42975 38098 38147 1
42976 38098 38148 1
42977 38098 38149 1
42978 38099 38150 1
42979 38099 38151 1
42980 38099 38152 1
42981 38100 38153 1
42982 38100 38154 1
42983 38100 38155 1
42984 38101 38156 1
42985 38102 38157 1
42986 38102 38158 1
42987 38102 38159 1
42988 38103 38160 1
42989 38103 38161 1
42990 38103 38162 1
42991 38104 38163 1
42992 38105 38164 1
42993 38108 38165 1
42994 38108 38166 1
42995 38108 38167 1
42996 38109 38168 1
42997 38109 38169 1
42998 38109 38170 1
42999 38171 38172 un
43000 38171 38176 un
43001 38171 38226 1
43002 38173 38172 un
43003 38172 38228 1
43004 38174 38173 un
43005 38173 38180 1
43006 38175 38174 un
43007 38174 38177 1
43008 38176 38175 un
43009 38175 38227 1
43010 38176 38224 1
43011 38178 38177 1
43012 38177 38240 1
43013 38177 38241 1
43014 38179 38178 un
43015 38178 38184 un
43016 38180 38179 1
43017 38179 38181 un
43018 38180 38242 1
43019 38180 38243 1
43020 38182 38181 un
43021 38181 38229 1
43022 38183 38182 un
43023 38182 38230 1
43024 38184 38183 un
43025 38183 38188 un
43026 38184 38185 un
43027 38186 38185 un
43028 38185 38244 1
43029 38187 38186 un
43030 38186 38192 un
43031 38188 38187 un
43032 38187 38189 1
43033 38188 38231 1
43034 38190 38189 1
43035 38189 38196 1
43036 38191 38190 1
43037 38190 38193 1
43038 38192 38191 un
43039 38191 38200 un
43040 38192 38197 un
43041 38194 38193 1
43042 38193 38245 1
43043 38193 38246 1
43044 38195 38194 un
43045 38194 38233 1
43046 38194 38247 1
43047 38196 38195 1
43048 38195 38232 1
43049 38195 38248 1
43050 38196 38249 1
43051 38196 38250 1
43052 38198 38197 un
43053 38197 38235 1
43054 38199 38198 un
43055 38198 38204 1
43056 38200 38199 un
43057 38199 38201 1
43058 38200 38234 1
43059 38202 38201 1
43060 38201 38237 2
43061 38203 38202 un
43062 38202 38208 un
43063 38204 38203 1
43064 38203 38205 1
43065 38204 38236 2
43066 38206 38205 1
43067 38205 38251 1
43068 38205 38252 1
43069 38207 38206 1
43070 38206 38253 1
43071 38206 38254 1
43072 38208 38207 un
43073 38207 38212 un
43074 38208 38209 un
43075 38210 38209 un
43076 38211 38210 un
43077 38210 38219 un
43078 38212 38211 un
43079 38211 38216 1
43080 38212 38213 1
43081 38214 38213 1
43082 38213 38255 1
43083 38213 38256 1
43084 38215 38214 1
43085 38214 38257 1
43086 38214 38258 1
43087 38216 38215 1
43088 38215 38259 1
43089 38215 38260 1
43090 38216 38217 1
43091 38216 38261 1
43092 38218 38217 1
43093 38217 38262 1
43094 38217 38263 1
43095 38219 38218 un
43096 38218 38223 un
43097 38219 38220 un
43098 38221 38220 un
43099 38220 38264 1
43100 38222 38221 un
43101 38221 38265 1
43102 38223 38222 un
43103 38222 38239 1
43104 38223 38238 1
43105 38224 38225 1
43106 38224 38266 1
43107 38224 38267 1
43108 38225 38268 1
43109 38225 38269 1
43110 38225 38270 1
43111 38226 38271 1
43112 38226 38272 1
43113 38226 38273 1
43114 38227 38274 1
43115 38227 38275 1
43116 38227 38276 1
43117 38228 38277 1
43118 38228 38278 1
43119 38228 38279 1
43120 38229 38280 1
43121 38229 38281 1
43122 38229 38282 1
43123 38230 38283 1
43124 38230 38284 1
43125 38230 38285 1
43126 38231 38286 1
43127 38232 38287 1
43128 38232 38288 1
43129 38232 38289 1
43130 38233 38290 1
43131 38233 38291 1
43132 38233 38292 1
43133 38234 38293 1
43134 38235 38294 1
43135 38238 38295 1
43136 38238 38296 1
43137 38238 38297 1
43138 38239 38298 1
43139 38239 38299 1
43140 38239 38300 1
43141 38301 38302 am
43142 38306 38301 am
43143 38301 38353 1
43144 38302 38303 am
43145 38302 38361 1
43146 38303 38304 am
43147 38303 38309 1
43148 38304 38305 am
43149 38304 38307 1
43150 38305 38306 am
43151 38305 38362 1
43152 38306 38354 1
43153 38307 38308 am
43154 38307 38313 am
43155 38308 38309 1
43156 38308 38310 am
43157 38309 38363 1
43158 38309 38364 1
43159 38310 38311 am
43160 38310 38323 am
43161 38311 38312 am
43162 38311 38320 am
43163 38312 38313 am
43164 38312 38317 1
43165 38313 38314 1
43166 38314 38315 1
43167 38314 38365 1
43168 38314 38366 1
43169 38315 38316 1
43170 38315 38367 1
43171 38315 38368 1
43172 38316 38317 1
43173 38316 38369 1
43174 38316 38370 1
43175 38317 38318 am
43176 38318 38319 am
43177 38318 38327 1
43178 38319 38320 am
43179 38319 38324 1
43180 38320 38321 am
43181 38321 38322 am
43182 38321 38341 am
43183 38322 38323 am
43184 38322 38339 1
43185 38323 38355 1
43186 38324 38325 1
43187 38324 38371 1
43188 38324 38400 1
43189 38325 38326 am
43190 38325 38331 am
43191 38326 38327 1
43192 38326 38328 am
43193 38327 38372 1
43194 38327 38401 1
43195 38328 38329 am
43196 38328 38359 1
43197 38329 38330 am
43198 38329 38335 1
43199 38330 38331 am
43200 38330 38332 1
43201 38331 38336 am
43202 38332 38333 1
43203 38332 38338 am
43204 38333 38334 1
43205 38333 38373 1
43206 38333 38374 1
43207 38334 38335 1
43208 38334 38375 1
43209 38334 38376 1
43210 38335 38377 1
43211 38335 38378 1
43212 38336 38337 am
43213 38336 38379 1
43214 38337 38338 am
43215 38337 38358 1
43216 38338 38380 1
43217 38339 38340 1
43218 38339 38381 1
43219 38339 38382 1
43220 38340 38341 am
43221 38340 38345 am
43222 38341 38342 am
43223 38342 38343 am
43224 38342 38383 1
43225 38343 38344 am
43226 38343 38352 am
43227 38344 38345 am
43228 38344 38349 am
43229 38345 38346 am
43230 38346 38347 am
43231 38346 38384 1
43232 38347 38348 am
43233 38347 38356 1
43234 38348 38349 am
43235 38348 38385 1
43236 38349 38350 am
43237 38350 38351 am
43238 38350 38360 1
43239 38351 38352 am
43240 38351 38386 1
43241 38352 38387 1
43242 38353 38388 1
43243 38354 38389 1
43244 38354 38390 1
43245 38354 38391 1
43246 38355 38392 1
43247 38356 38357 1
43248 38356 38393 1
43249 38356 38402 1
43250 38357 38394 1
43251 38357 38395 1
43252 38357 38396 1
43253 38358 38397 1
43254 38359 38398 1
43255 38360 38399 1
43256 38403 38404 am
43257 38408 38403 am
43258 38403 38455 1
43259 38404 38405 am
43260 38404 38463 1
43261 38405 38406 am
43262 38405 38411 1
43263 38406 38407 am
43264 38406 38409 1
43265 38407 38408 am
43266 38407 38464 1
43267 38408 38456 1
43268 38409 38410 am
43269 38409 38415 am
43270 38410 38411 1
43271 38410 38412 am
43272 38411 38465 1
43273 38411 38466 1
43274 38412 38413 am
43275 38412 38425 am
43276 38413 38414 am
43277 38413 38422 am
43278 38414 38415 am
43279 38414 38419 1
43280 38415 38416 1
43281 38416 38417 1
43282 38416 38467 1
43283 38416 38468 1
43284 38417 38418 1
43285 38417 38469 1
43286 38417 38470 1
43287 38418 38419 1
43288 38418 38471 1
43289 38418 38472 1
43290 38419 38420 am
43291 38420 38421 am
43292 38420 38429 1
43293 38421 38422 am
43294 38421 38426 1
43295 38422 38423 am
43296 38423 38424 am
43297 38423 38443 am
43298 38424 38425 am
43299 38424 38441 1
43300 38425 38457 1
43301 38426 38427 1
43302 38426 38473 1
43303 38426 38502 1
43304 38427 38428 am
43305 38427 38433 am
43306 38428 38429 1
43307 38428 38430 am
43308 38429 38474 1
43309 38429 38503 1
43310 38430 38431 am
43311 38430 38461 1
43312 38431 38432 am
43313 38431 38437 1
43314 38432 38433 am
43315 38432 38434 1
43316 38433 38438 am
43317 38434 38435 1
43318 38434 38440 am
43319 38435 38436 1
43320 38435 38475 1
43321 38435 38476 1
43322 38436 38437 1
43323 38436 38477 1
43324 38436 38478 1
43325 38437 38479 1
43326 38437 38480 1
43327 38438 38439 am
43328 38438 38481 1
43329 38439 38440 am
43330 38439 38460 1
43331 38440 38482 1
43332 38441 38442 1
43333 38441 38483 1
43334 38441 38484 1
43335 38442 38443 am
43336 38442 38447 am
43337 38443 38444 am
43338 38444 38445 am
43339 38444 38485 1
43340 38445 38446 am
43341 38445 38454 am
43342 38446 38447 am
43343 38446 38451 am
43344 38447 38448 am
43345 38448 38449 am
43346 38448 38486 1
43347 38449 38450 am
43348 38449 38458 1
43349 38450 38451 am
43350 38450 38487 1
43351 38451 38452 am
43352 38452 38453 am
43353 38452 38462 1
43354 38453 38454 am
43355 38453 38488 1
43356 38454 38489 1
43357 38455 38490 1
43358 38456 38491 1
43359 38456 38492 1
43360 38456 38493 1
43361 38457 38494 1
43362 38458 38459 1
43363 38458 38495 1
43364 38458 38504 1
43365 38459 38496 1
43366 38459 38497 1
43367 38459 38498 1
43368 38460 38499 1
43369 38461 38500 1
43370 38462 38501 1
43371 38505 38506 am
43372 38510 38505 am
43373 38505 38557 1
43374 38506 38507 am
43375 38506 38565 1
43376 38507 38508 am
43377 38507 38513 1
43378 38508 38509 am
43379 38508 38511 1
43380 38509 38510 am
43381 38509 38566 1
43382 38510 38558 1
43383 38511 38512 am
43384 38511 38517 am
43385 38512 38513 1
43386 38512 38514 am
43387 38513 38567 1
43388 38513 38568 1
43389 38514 38515 am
43390 38514 38527 am
43391 38515 38516 am
43392 38515 38524 am
43393 38516 38517 am
43394 38516 38521 1
43395 38517 38518 1
43396 38518 38519 1
43397 38518 38569 1
43398 38518 38570 1
43399 38519 38520 1
43400 38519 38571 1
43401 38519 38572 1
43402 38520 38521 1
43403 38520 38573 1
43404 38520 38574 1
43405 38521 38522 am
43406 38522 38523 am
43407 38522 38531 1
43408 38523 38524 am
43409 38523 38528 1
43410 38524 38525 am
43411 38525 38526 am
43412 38525 38545 am
43413 38526 38527 am
43414 38526 38543 1
43415 38527 38559 1
43416 38528 38529 1
43417 38528 38575 1
43418 38528 38604 1
43419 38529 38530 am
43420 38529 38535 am
43421 38530 38531 1
43422 38530 38532 am
43423 38531 38576 1
43424 38531 38605 1
43425 38532 38533 am
43426 38532 38563 1
43427 38533 38534 am
43428 38533 38539 1
43429 38534 38535 am
43430 38534 38536 1
43431 38535 38540 am
43432 38536 38537 1
43433 38536 38542 am
43434 38537 38538 1
43435 38537 38577 1
43436 38537 38578 1
43437 38538 38539 1
43438 38538 38579 1
43439 38538 38580 1
43440 38539 38581 1
43441 38539 38582 1
43442 38540 38541 am
43443 38540 38583 1
43444 38541 38542 am
43445 38541 38562 1
43446 38542 38584 1
43447 38543 38544 1
43448 38543 38585 1
43449 38543 38586 1
43450 38544 38545 am
43451 38544 38549 am
43452 38545 38546 am
43453 38546 38547 am
43454 38546 38587 1
43455 38547 38548 am
43456 38547 38556 am
43457 38548 38549 am
43458 38548 38553 am
43459 38549 38550 am
43460 38550 38551 am
43461 38550 38588 1
43462 38551 38552 am
43463 38551 38560 1
43464 38552 38553 am
43465 38552 38589 1
43466 38553 38554 am
43467 38554 38555 am
43468 38554 38564 1
43469 38555 38556 am
43470 38555 38590 1
43471 38556 38591 1
43472 38557 38592 1
43473 38558 38593 1
43474 38558 38594 1
43475 38558 38595 1
43476 38559 38596 1
43477 38560 38561 1
43478 38560 38597 1
43479 38560 38606 1
43480 38561 38598 1
43481 38561 38599 1
43482 38561 38600 1
43483 38562 38601 1
43484 38563 38602 1
43485 38564 38603 1
43486 38607 38608 am
43487 38612 38607 am
43488 38607 38659 1
43489 38608 38609 am
43490 38608 38667 1
43491 38609 38610 am
43492 38609 38615 1
43493 38610 38611 am
43494 38610 38613 1
43495 38611 38612 am
43496 38611 38668 1
43497 38612 38660 1
43498 38613 38614 am
43499 38613 38619 am
43500 38614 38615 1
43501 38614 38616 am
43502 38615 38669 1
43503 38615 38670 1
43504 38616 38617 am
43505 38616 38629 am
43506 38617 38618 am
43507 38617 38626 am
43508 38618 38619 am
43509 38618 38623 1
43510 38619 38620 1
43511 38620 38621 1
43512 38620 38671 1
43513 38620 38672 1
43514 38621 38622 1
43515 38621 38673 1
43516 38621 38674 1
43517 38622 38623 1
43518 38622 38675 1
43519 38622 38676 1
43520 38623 38624 am
43521 38624 38625 am
43522 38624 38633 1
43523 38625 38626 am
43524 38625 38630 1
43525 38626 38627 am
43526 38627 38628 am
43527 38627 38647 am
43528 38628 38629 am
43529 38628 38645 1
43530 38629 38661 1
43531 38630 38631 1
43532 38630 38677 1
43533 38630 38706 1
43534 38631 38632 am
43535 38631 38637 am
43536 38632 38633 1
43537 38632 38634 am
43538 38633 38678 1
43539 38633 38707 1
43540 38634 38635 am
43541 38634 38665 1
43542 38635 38636 am
43543 38635 38641 1
43544 38636 38637 am
43545 38636 38638 1
43546 38637 38642 am
43547 38638 38639 1
43548 38638 38644 am
43549 38639 38640 1
43550 38639 38679 1
43551 38639 38680 1
43552 38640 38641 1
43553 38640 38681 1
43554 38640 38682 1
43555 38641 38683 1
43556 38641 38684 1
43557 38642 38643 am
43558 38642 38685 1
43559 38643 38644 am
43560 38643 38664 1
43561 38644 38686 1
43562 38645 38646 1
43563 38645 38687 1
43564 38645 38688 1
43565 38646 38647 am
43566 38646 38651 am
43567 38647 38648 am
43568 38648 38649 am
43569 38648 38689 1
43570 38649 38650 am
43571 38649 38658 am
43572 38650 38651 am
43573 38650 38655 am
43574 38651 38652 am
43575 38652 38653 am
43576 38652 38690 1
43577 38653 38654 am
43578 38653 38662 1
43579 38654 38655 am
43580 38654 38691 1
43581 38655 38656 am
43582 38656 38657 am
43583 38656 38666 1
43584 38657 38658 am
43585 38657 38692 1
43586 38658 38693 1
43587 38659 38694 1
43588 38660 38695 1
43589 38660 38696 1
43590 38660 38697 1
43591 38661 38698 1
43592 38662 38663 1
43593 38662 38699 1
43594 38662 38708 1
43595 38663 38700 1
43596 38663 38701 1
43597 38663 38702 1
43598 38664 38703 1
43599 38665 38704 1
43600 38666 38705 1
43601 38709 38710 am
43602 38714 38709 am
43603 38709 38761 1
43604 38710 38711 am
43605 38710 38769 1
43606 38711 38712 am
43607 38711 38717 1
43608 38712 38713 am
43609 38712 38715 1
43610 38713 38714 am
43611 38713 38770 1
43612 38714 38762 1
43613 38715 38716 am
43614 38715 38721 am
43615 38716 38717 1
43616 38716 38718 am
43617 38717 38771 1
43618 38717 38772 1
43619 38718 38719 am
43620 38718 38731 am
43621 38719 38720 am
43622 38719 38728 am
43623 38720 38721 am
43624 38720 38725 1
43625 38721 38722 1
43626 38722 38723 1
43627 38722 38773 1
43628 38722 38774 1
43629 38723 38724 1
43630 38723 38775 1
43631 38723 38776 1
43632 38724 38725 1
43633 38724 38777 1
43634 38724 38778 1
43635 38725 38726 am
43636 38726 38727 am
43637 38726 38735 1
43638 38727 38728 am
43639 38727 38732 1
43640 38728 38729 am
43641 38729 38730 am
43642 38729 38749 am
43643 38730 38731 am
43644 38730 38747 1
43645 38731 38763 1
43646 38732 38733 1
43647 38732 38779 1
43648 38732 38808 1
43649 38733 38734 am
43650 38733 38739 am
43651 38734 38735 1
43652 38734 38736 am
43653 38735 38780 1
43654 38735 38809 1
43655 38736 38737 am
43656 38736 38767 1
43657 38737 38738 am
43658 38737 38743 1
43659 38738 38739 am
43660 38738 38740 1
43661 38739 38744 am
43662 38740 38741 1
43663 38740 38746 am
43664 38741 38742 1
43665 38741 38781 1
43666 38741 38782 1
43667 38742 38743 1
43668 38742 38783 1
43669 38742 38784 1
43670 38743 38785 1
43671 38743 38786 1
43672 38744 38745 am
43673 38744 38787 1
43674 38745 38746 am
43675 38745 38766 1
43676 38746 38788 1
43677 38747 38748 1
43678 38747 38789 1
43679 38747 38790 1
43680 38748 38749 am
43681 38748 38753 am
43682 38749 38750 am
43683 38750 38751 am
43684 38750 38791 1
43685 38751 38752 am
43686 38751 38760 am
43687 38752 38753 am
43688 38752 38757 am
43689 38753 38754 am
43690 38754 38755 am
43691 38754 38792 1
43692 38755 38756 am
43693 38755 38764 1
43694 38756 38757 am
43695 38756 38793 1
43696 38757 38758 am
43697 38758 38759 am
43698 38758 38768 1
43699 38759 38760 am
43700 38759 38794 1
43701 38760 38795 1
43702 38761 38796 1
43703 38762 38797 1
43704 38762 38798 1
43705 38762 38799 1
43706 38763 38800 1
43707 38764 38765 1
43708 38764 38801 1
43709 38764 38810 1
43710 38765 38802 1
43711 38765 38803 1
43712 38765 38804 1
43713 38766 38805 1
43714 38767 38806 1
43715 38768 38807 1
43716 38811 38812 am
43717 38816 38811 am
43718 38811 38863 1
43719 38812 38813 am
43720 38812 38871 1
43721 38813 38814 am
43722 38813 38819 1
43723 38814 38815 am
43724 38814 38817 1
43725 38815 38816 am
43726 38815 38872 1
43727 38816 38864 1
43728 38817 38818 am
43729 38817 38823 am
43730 38818 38819 1
43731 38818 38820 am
43732 38819 38873 1
43733 38819 38874 1
43734 38820 38821 am
43735 38820 38833 am
43736 38821 38822 am
43737 38821 38830 am
43738 38822 38823 am
43739 38822 38827 1
43740 38823 38824 1
43741 38824 38825 1
43742 38824 38875 1
43743 38824 38876 1
43744 38825 38826 1
43745 38825 38877 1
43746 38825 38878 1
43747 38826 38827 1
43748 38826 38879 1
43749 38826 38880 1
43750 38827 38828 am
43751 38828 38829 am
43752 38828 38837 1
43753 38829 38830 am
43754 38829 38834 1
43755 38830 38831 am
43756 38831 38832 am
43757 38831 38851 am
43758 38832 38833 am
43759 38832 38849 1
43760 38833 38865 1
43761 38834 38835 1
43762 38834 38881 1
43763 38834 38910 1
43764 38835 38836 am
43765 38835 38841 am
43766 38836 38837 1
43767 38836 38838 am
43768 38837 38882 1
43769 38837 38911 1
43770 38838 38839 am
43771 38838 38869 1
43772 38839 38840 am
43773 38839 38845 1
43774 38840 38841 am
43775 38840 38842 1
43776 38841 38846 am
43777 38842 38843 1
43778 38842 38848 am
43779 38843 38844 1
43780 38843 38883 1
43781 38843 38884 1
43782 38844 38845 1
43783 38844 38885 1
43784 38844 38886 1
43785 38845 38887 1
43786 38845 38888 1
43787 38846 38847 am
43788 38846 38889 1
43789 38847 38848 am
43790 38847 38868 1
43791 38848 38890 1
43792 38849 38850 1
43793 38849 38891 1
43794 38849 38892 1
43795 38850 38851 am
43796 38850 38855 am
43797 38851 38852 am
43798 38852 38853 am
43799 38852 38893 1
43800 38853 38854 am
43801 38853 38862 am
43802 38854 38855 am
43803 38854 38859 am
43804 38855 38856 am
43805 38856 38857 am
43806 38856 38894 1
43807 38857 38858 am
43808 38857 38866 1
43809 38858 38859 am
43810 38858 38895 1
43811 38859 38860 am
43812 38860 38861 am
43813 38860 38870 1
43814 38861 38862 am
43815 38861 38896 1
43816 38862 38897 1
43817 38863 38898 1
43818 38864 38899 1
43819 38864 38900 1
43820 38864 38901 1
43821 38865 38902 1
43822 38866 38867 1
43823 38866 38903 1
43824 38866 38912 1
43825 38867 38904 1
43826 38867 38905 1
43827 38867 38906 1
43828 38868 38907 1
43829 38869 38908 1
43830 38870 38909 1
43831 38913 38914 am
43832 38918 38913 am
43833 38913 38965 1
43834 38914 38915 am
43835 38914 38973 1
43836 38915 38916 am
43837 38915 38921 1
43838 38916 38917 am
43839 38916 38919 1
43840 38917 38918 am
43841 38917 38974 1
43842 38918 38966 1
43843 38919 38920 am
43844 38919 38925 am
43845 38920 38921 1
43846 38920 38922 am
43847 38921 38975 1
43848 38921 38976 1
43849 38922 38923 am
43850 38922 38935 am
43851 38923 38924 am
43852 38923 38932 am
43853 38924 38925 am
43854 38924 38929 1
43855 38925 38926 1
43856 38926 38927 1
43857 38926 38977 1
43858 38926 38978 1
43859 38927 38928 1
43860 38927 38979 1
43861 38927 38980 1
43862 38928 38929 1
43863 38928 38981 1
43864 38928 38982 1
43865 38929 38930 am
43866 38930 38931 am
43867 38930 38939 1
43868 38931 38932 am
43869 38931 38936 1
43870 38932 38933 am
43871 38933 38934 am
43872 38933 38953 am
43873 38934 38935 am
43874 38934 38951 1
43875 38935 38967 1
43876 38936 38937 1
43877 38936 38983 1
43878 38936 39012 1
43879 38937 38938 am
43880 38937 38943 am
43881 38938 38939 1
43882 38938 38940 am
43883 38939 38984 1
43884 38939 39013 1
43885 38940 38941 am
43886 38940 38971 1
43887 38941 38942 am
43888 38941 38947 1
43889 38942 38943 am
43890 38942 38944 1
43891 38943 38948 am
43892 38944 38945 1
43893 38944 38950 am
43894 38945 38946 1
43895 38945 38985 1
43896 38945 38986 1
43897 38946 38947 1
43898 38946 38987 1
43899 38946 38988 1
43900 38947 38989 1
43901 38947 38990 1
43902 38948 38949 am
43903 38948 38991 1
43904 38949 38950 am
43905 38949 38970 1
43906 38950 38992 1
43907 38951 38952 1
43908 38951 38993 1
43909 38951 38994 1
43910 38952 38953 am
43911 38952 38957 am
43912 38953 38954 am
43913 38954 38955 am
43914 38954 38995 1
43915 38955 38956 am
43916 38955 38964 am
43917 38956 38957 am
43918 38956 38961 am
43919 38957 38958 am
43920 38958 38959 am
43921 38958 38996 1
43922 38959 38960 am
43923 38959 38968 1
43924 38960 38961 am
43925 38960 38997 1
43926 38961 38962 am
43927 38962 38963 am
43928 38962 38972 1
43929 38963 38964 am
43930 38963 38998 1
43931 38964 38999 1
43932 38965 39000 1
43933 38966 39001 1
43934 38966 39002 1
43935 38966 39003 1
43936 38967 39004 1
43937 38968 38969 1
43938 38968 39005 1
43939 38968 39014 1
43940 38969 39006 1
43941 38969 39007 1
43942 38969 39008 1
43943 38970 39009 1
43944 38971 39010 1
43945 38972 39011 1
43946 39015 39016 am
43947 39020 39015 am
43948 39015 39067 1
43949 39016 39017 am
43950 39016 39075 1
43951 39017 39018 am
43952 39017 39023 1
43953 39018 39019 am
43954 39018 39021 1
43955 39019 39020 am
43956 39019 39076 1
43957 39020 39068 1
43958 39021 39022 am
43959 39021 39027 am
43960 39022 39023 1
43961 39022 39024 am
43962 39023 39077 1
43963 39023 39078 1
43964 39024 39025 am
43965 39024 39037 am
43966 39025 39026 am
43967 39025 39034 am
43968 39026 39027 am
43969 39026 39031 1
43970 39027 39028 1
43971 39028 39029 1
43972 39028 39079 1
43973 39028 39080 1
43974 39029 39030 1
43975 39029 39081 1
43976 39029 39082 1
43977 39030 39031 1
43978 39030 39083 1
43979 39030 39084 1
43980 39031 39032 am
43981 39032 39033 am
43982 39032 39041 1
43983 39033 39034 am
43984 39033 39038 1
43985 39034 39035 am
43986 39035 39036 am
43987 39035 39055 am
43988 39036 39037 am
43989 39036 39053 1
43990 39037 39069 1
43991 39038 39039 1
43992 39038 39085 1
43993 39038 39114 1
43994 39039 39040 am
43995 39039 39045 am
43996 39040 39041 1
43997 39040 39042 am
43998 39041 39086 1
43999 39041 39115 1
44000 39042 39043 am
44001 39042 39073 1
44002 39043 39044 am
44003 39043 39049 1
44004 39044 39045 am
44005 39044 39046 1
44006 39045 39050 am
44007 39046 39047 1
44008 39046 39052 am
44009 39047 39048 1
44010 39047 39087 1
44011 39047 39088 1
44012 39048 39049 1
44013 39048 39089 1
44014 39048 39090 1
44015 39049 39091 1
44016 39049 39092 1
44017 39050 39051 am
44018 39050 39093 1
44019 39051 39052 am
44020 39051 39072 1
44021 39052 39094 1
44022 39053 39054 1
44023 39053 39095 1
44024 39053 39096 1
44025 39054 39055 am
44026 39054 39059 am
44027 39055 39056 am
44028 39056 39057 am
44029 39056 39097 1
44030 39057 39058 am
44031 39057 39066 am
44032 39058 39059 am
44033 39058 39063 am
44034 39059 39060 am
44035 39060 39061 am
44036 39060 39098 1
44037 39061 39062 am
44038 39061 39070 1
44039 39062 39063 am
44040 39062 39099 1
44041 39063 39064 am
44042 39064 39065 am
44043 39064 39074 1
44044 39065 39066 am
44045 39065 39100 1
44046 39066 39101 1
44047 39067 39102 1
44048 39068 39103 1
44049 39068 39104 1
44050 39068 39105 1
44051 39069 39106 1
44052 39070 39071 1
44053 39070 39107 1
44054 39070 39116 1
44055 39071 39108 1
44056 39071 39109 1
44057 39071 39110 1
44058 39072 39111 1
44059 39073 39112 1
44060 39074 39113 1
44061 39117 39118 am
44062 39122 39117 am
44063 39117 39169 1
44064 39118 39119 am
44065 39118 39177 1
44066 39119 39120 am
44067 39119 39125 1
44068 39120 39121 am
44069 39120 39123 1
44070 39121 39122 am
44071 39121 39178 1
44072 39122 39170 1
44073 39123 39124 am
44074 39123 39129 am
44075 39124 39125 1
44076 39124 39126 am
44077 39125 39179 1
44078 39125 39180 1
44079 39126 39127 am
44080 39126 39139 am
44081 39127 39128 am
44082 39127 39136 am
44083 39128 39129 am
44084 39128 39133 1
44085 39129 39130 1
44086 39130 39131 1
44087 39130 39181 1
44088 39130 39182 1
44089 39131 39132 1
44090 39131 39183 1
44091 39131 39184 1
44092 39132 39133 1
44093 39132 39185 1
44094 39132 39186 1
44095 39133 39134 am
44096 39134 39135 am
44097 39134 39143 1
44098 39135 39136 am
44099 39135 39140 1
44100 39136 39137 am
44101 39137 39138 am
44102 39137 39157 am
44103 39138 39139 am
44104 39138 39155 1
44105 39139 39171 1
44106 39140 39141 1
44107 39140 39187 1
44108 39140 39216 1
44109 39141 39142 am
44110 39141 39147 am
44111 39142 39143 1
44112 39142 39144 am
44113 39143 39188 1
44114 39143 39217 1
44115 39144 39145 am
44116 39144 39175 1
44117 39145 39146 am
44118 39145 39151 1
44119 39146 39147 am
44120 39146 39148 1
44121 39147 39152 am
44122 39148 39149 1
44123 39148 39154 am
44124 39149 39150 1
44125 39149 39189 1
44126 39149 39190 1
44127 39150 39151 1
44128 39150 39191 1
44129 39150 39192 1
44130 39151 39193 1
44131 39151 39194 1
44132 39152 39153 am
44133 39152 39195 1
44134 39153 39154 am
44135 39153 39174 1
44136 39154 39196 1
44137 39155 39156 1
44138 39155 39197 1
44139 39155 39198 1
44140 39156 39157 am
44141 39156 39161 am
44142 39157 39158 am
44143 39158 39159 am
44144 39158 39199 1
44145 39159 39160 am
44146 39159 39168 am
44147 39160 39161 am
44148 39160 39165 am
44149 39161 39162 am
44150 39162 39163 am
44151 39162 39200 1
44152 39163 39164 am
44153 39163 39172 1
44154 39164 39165 am
44155 39164 39201 1
44156 39165 39166 am
44157 39166 39167 am
44158 39166 39176 1
44159 39167 39168 am
44160 39167 39202 1
44161 39168 39203 1
44162 39169 39204 1
44163 39170 39205 1
44164 39170 39206 1
44165 39170 39207 1
44166 39171 39208 1
44167 39172 39173 1
44168 39172 39209 1
44169 39172 39218 1
44170 39173 39210 1
44171 39173 39211 1
44172 39173 39212 1
44173 39174 39213 1
44174 39175 39214 1
44175 39176 39215 1
44176 39219 39220 am
44177 39224 39219 am
44178 39219 39271 1
44179 39220 39221 am
44180 39220 39279 1
44181 39221 39222 am
44182 39221 39227 1
44183 39222 39223 am
44184 39222 39225 1
44185 39223 39224 am
44186 39223 39280 1
44187 39224 39272 1
44188 39225 39226 am
44189 39225 39231 am
44190 39226 39227 1
44191 39226 39228 am
44192 39227 39281 1
44193 39227 39282 1
44194 39228 39229 am
44195 39228 39241 am
44196 39229 39230 am
44197 39229 39238 am
44198 39230 39231 am
44199 39230 39235 1
44200 39231 39232 1
44201 39232 39233 1
44202 39232 39283 1
44203 39232 39284 1
44204 39233 39234 1
44205 39233 39285 1
44206 39233 39286 1
44207 39234 39235 1
44208 39234 39287 1
44209 39234 39288 1
44210 39235 39236 am
44211 39236 39237 am
44212 39236 39245 1
44213 39237 39238 am
44214 39237 39242 1
44215 39238 39239 am
44216 39239 39240 am
44217 39239 39259 am
44218 39240 39241 am
44219 39240 39257 1
44220 39241 39273 1
44221 39242 39243 1
44222 39242 39289 1
44223 39242 39318 1
44224 39243 39244 am
44225 39243 39249 am
44226 39244 39245 1
44227 39244 39246 am
44228 39245 39290 1
44229 39245 39319 1
44230 39246 39247 am
44231 39246 39277 1
44232 39247 39248 am
44233 39247 39253 1
44234 39248 39249 am
44235 39248 39250 1
44236 39249 39254 am
44237 39250 39251 1
44238 39250 39256 am
44239 39251 39252 1
44240 39251 39291 1
44241 39251 39292 1
44242 39252 39253 1
44243 39252 39293 1
44244 39252 39294 1
44245 39253 39295 1
44246 39253 39296 1
44247 39254 39255 am
44248 39254 39297 1
44249 39255 39256 am
44250 39255 39276 1
44251 39256 39298 1
44252 39257 39258 1
44253 39257 39299 1
44254 39257 39300 1
44255 39258 39259 am
44256 39258 39263 am
44257 39259 39260 am
44258 39260 39261 am
44259 39260 39301 1
44260 39261 39262 am
44261 39261 39270 am
44262 39262 39263 am
44263 39262 39267 am
44264 39263 39264 am
44265 39264 39265 am
44266 39264 39302 1
44267 39265 39266 am
44268 39265 39274 1
44269 39266 39267 am
44270 39266 39303 1
44271 39267 39268 am
44272 39268 39269 am
44273 39268 39278 1
44274 39269 39270 am
44275 39269 39304 1
44276 39270 39305 1
44277 39271 39306 1
44278 39272 39307 1
44279 39272 39308 1
44280 39272 39309 1
44281 39273 39310 1
44282 39274 39275 1
44283 39274 39311 1
44284 39274 39320 1
44285 39275 39312 1
44286 39275 39313 1
44287 39275 39314 1
44288 39276 39315 1
44289 39277 39316 1
44290 39278 39317 1
44291 39321 39322 am
44292 39326 39321 am
44293 39321 39373 1
44294 39322 39323 am
44295 39322 39381 1
44296 39323 39324 am
44297 39323 39329 1
44298 39324 39325 am
44299 39324 39327 1
44300 39325 39326 am
44301 39325 39382 1
44302 39326 39374 1
44303 39327 39328 am
44304 39327 39333 am
44305 39328 39329 1
44306 39328 39330 am
44307 39329 39383 1
44308 39329 39384 1
44309 39330 39331 am
44310 39330 39343 am
44311 39331 39332 am
44312 39331 39340 am
44313 39332 39333 am
44314 39332 39337 1
44315 39333 39334 1
44316 39334 39335 1
44317 39334 39385 1
44318 39334 39386 1
44319 39335 39336 1
44320 39335 39387 1
44321 39335 39388 1
44322 39336 39337 1
44323 39336 39389 1
44324 39336 39390 1
44325 39337 39338 am
44326 39338 39339 am
44327 39338 39347 1
44328 39339 39340 am
44329 39339 39344 1
44330 39340 39341 am
44331 39341 39342 am
44332 39341 39361 am
44333 39342 39343 am
44334 39342 39359 1
44335 39343 39375 1
44336 39344 39345 1
44337 39344 39391 1
44338 39344 39420 1
44339 39345 39346 am
44340 39345 39351 am
44341 39346 39347 1
44342 39346 39348 am
44343 39347 39392 1
44344 39347 39421 1
44345 39348 39349 am
44346 39348 39379 1
44347 39349 39350 am
44348 39349 39355 1
44349 39350 39351 am
44350 39350 39352 1
44351 39351 39356 am
44352 39352 39353 1
44353 39352 39358 am
44354 39353 39354 1
44355 39353 39393 1
44356 39353 39394 1
44357 39354 39355 1
44358 39354 39395 1
44359 39354 39396 1
44360 39355 39397 1
44361 39355 39398 1
44362 39356 39357 am
44363 39356 39399 1
44364 39357 39358 am
44365 39357 39378 1
44366 39358 39400 1
44367 39359 39360 1
44368 39359 39401 1
44369 39359 39402 1
44370 39360 39361 am
44371 39360 39365 am
44372 39361 39362 am
44373 39362 39363 am
44374 39362 39403 1
44375 39363 39364 am
44376 39363 39372 am
44377 39364 39365 am
44378 39364 39369 am
44379 39365 39366 am
44380 39366 39367 am
44381 39366 39404 1
44382 39367 39368 am
44383 39367 39376 1
44384 39368 39369 am
44385 39368 39405 1
44386 39369 39370 am
44387 39370 39371 am
44388 39370 39380 1
44389 39371 39372 am
44390 39371 39406 1
44391 39372 39407 1
44392 39373 39408 1
44393 39374 39409 1
44394 39374 39410 1
44395 39374 39411 1
44396 39375 39412 1
44397 39376 39377 1
44398 39376 39413 1
44399 39376 39422 1
44400 39377 39414 1
44401 39377 39415 1
44402 39377 39416 1
44403 39378 39417 1
44404 39379 39418 1
44405 39380 39419 1
44406 39423 39424 am
44407 39428 39423 am
44408 39423 39475 1
44409 39424 39425 am
44410 39424 39483 1
44411 39425 39426 am
44412 39425 39431 1
44413 39426 39427 am
44414 39426 39429 1
44415 39427 39428 am
44416 39427 39484 1
44417 39428 39476 1
44418 39429 39430 am
44419 39429 39435 am
44420 39430 39431 1
44421 39430 39432 am
44422 39431 39485 1
44423 39431 39486 1
44424 39432 39433 am
44425 39432 39445 am
44426 39433 39434 am
44427 39433 39442 am
44428 39434 39435 am
44429 39434 39439 1
44430 39435 39436 1
44431 39436 39437 1
44432 39436 39487 1
44433 39436 39488 1
44434 39437 39438 1
44435 39437 39489 1
44436 39437 39490 1
44437 39438 39439 1
44438 39438 39491 1
44439 39438 39492 1
44440 39439 39440 am
44441 39440 39441 am
44442 39440 39449 1
44443 39441 39442 am
44444 39441 39446 1
44445 39442 39443 am
44446 39443 39444 am
44447 39443 39463 am
44448 39444 39445 am
44449 39444 39461 1
44450 39445 39477 1
44451 39446 39447 1
44452 39446 39493 1
44453 39446 39522 1
44454 39447 39448 am
44455 39447 39453 am
44456 39448 39449 1
44457 39448 39450 am
44458 39449 39494 1
44459 39449 39523 1
44460 39450 39451 am
44461 39450 39481 1
44462 39451 39452 am
44463 39451 39457 1
44464 39452 39453 am
44465 39452 39454 1
44466 39453 39458 am
44467 39454 39455 1
44468 39454 39460 am
44469 39455 39456 1
44470 39455 39495 1
44471 39455 39496 1
44472 39456 39457 1
44473 39456 39497 1
44474 39456 39498 1
44475 39457 39499 1
44476 39457 39500 1
44477 39458 39459 am
44478 39458 39501 1
44479 39459 39460 am
44480 39459 39480 1
44481 39460 39502 1
44482 39461 39462 1
44483 39461 39503 1
44484 39461 39504 1
44485 39462 39463 am
44486 39462 39467 am
44487 39463 39464 am
44488 39464 39465 am
44489 39464 39505 1
44490 39465 39466 am
44491 39465 39474 am
44492 39466 39467 am
44493 39466 39471 am
44494 39467 39468 am
44495 39468 39469 am
44496 39468 39506 1
44497 39469 39470 am
44498 39469 39478 1
44499 39470 39471 am
44500 39470 39507 1
44501 39471 39472 am
44502 39472 39473 am
44503 39472 39482 1
44504 39473 39474 am
44505 39473 39508 1
44506 39474 39509 1
44507 39475 39510 1
44508 39476 39511 1
44509 39476 39512 1
44510 39476 39513 1
44511 39477 39514 1
44512 39478 39479 1
44513 39478 39515 1
44514 39478 39524 1
44515 39479 39516 1
44516 39479 39517 1
44517 39479 39518 1
44518 39480 39519 1
44519 39481 39520 1
44520 39482 39521 1
44521 39525 39526 am
44522 39530 39525 am
44523 39525 39577 1
44524 39526 39527 am
44525 39526 39585 1
44526 39527 39528 am
44527 39527 39533 1
44528 39528 39529 am
44529 39528 39531 1
44530 39529 39530 am
44531 39529 39586 1
44532 39530 39578 1
44533 39531 39532 am
44534 39531 39537 am
44535 39532 39533 1
44536 39532 39534 am
44537 39533 39587 1
44538 39533 39588 1
44539 39534 39535 am
44540 39534 39547 am
44541 39535 39536 am
44542 39535 39544 am
44543 39536 39537 am
44544 39536 39541 1
44545 39537 39538 1
44546 39538 39539 1
44547 39538 39589 1
44548 39538 39590 1
44549 39539 39540 1
44550 39539 39591 1
44551 39539 39592 1
44552 39540 39541 1
44553 39540 39593 1
44554 39540 39594 1
44555 39541 39542 am
44556 39542 39543 am
44557 39542 39551 1
44558 39543 39544 am
44559 39543 39548 1
44560 39544 39545 am
44561 39545 39546 am
44562 39545 39565 am
44563 39546 39547 am
44564 39546 39563 1
44565 39547 39579 1
44566 39548 39549 1
44567 39548 39595 1
44568 39548 39624 1
44569 39549 39550 am
44570 39549 39555 am
44571 39550 39551 1
44572 39550 39552 am
44573 39551 39596 1
44574 39551 39625 1
44575 39552 39553 am
44576 39552 39583 1
44577 39553 39554 am
44578 39553 39559 1
44579 39554 39555 am
44580 39554 39556 1
44581 39555 39560 am
44582 39556 39557 1
44583 39556 39562 am
44584 39557 39558 1
44585 39557 39597 1
44586 39557 39598 1
44587 39558 39559 1
44588 39558 39599 1
44589 39558 39600 1
44590 39559 39601 1
44591 39559 39602 1
44592 39560 39561 am
44593 39560 39603 1
44594 39561 39562 am
44595 39561 39582 1
44596 39562 39604 1
44597 39563 39564 1
44598 39563 39605 1
44599 39563 39606 1
44600 39564 39565 am
44601 39564 39569 am
44602 39565 39566 am
44603 39566 39567 am
44604 39566 39607 1
44605 39567 39568 am
44606 39567 39576 am
44607 39568 39569 am
44608 39568 39573 am
44609 39569 39570 am
44610 39570 39571 am
44611 39570 39608 1
44612 39571 39572 am
44613 39571 39580 1
44614 39572 39573 am
44615 39572 39609 1
44616 39573 39574 am
44617 39574 39575 am
44618 39574 39584 1
44619 39575 39576 am
44620 39575 39610 1
44621 39576 39611 1
44622 39577 39612 1
44623 39578 39613 1
44624 39578 39614 1
44625 39578 39615 1
44626 39579 39616 1
44627 39580 39581 1
44628 39580 39617 1
44629 39580 39626 1
44630 39581 39618 1
44631 39581 39619 1
44632 39581 39620 1
44633 39582 39621 1
44634 39583 39622 1
44635 39584 39623 1
44636 39627 39628 am
44637 39632 39627 am
44638 39627 39679 1
44639 39628 39629 am
44640 39628 39687 1
44641 39629 39630 am
44642 39629 39635 1
44643 39630 39631 am
44644 39630 39633 1
44645 39631 39632 am
44646 39631 39688 1
44647 39632 39680 1
44648 39633 39634 am
44649 39633 39639 am
44650 39634 39635 1
44651 39634 39636 am
44652 39635 39689 1
44653 39635 39690 1
44654 39636 39637 am
44655 39636 39649 am
44656 39637 39638 am
44657 39637 39646 am
44658 39638 39639 am
44659 39638 39643 1
44660 39639 39640 1
44661 39640 39641 1
44662 39640 39691 1
44663 39640 39692 1
44664 39641 39642 1
44665 39641 39693 1
44666 39641 39694 1
44667 39642 39643 1
44668 39642 39695 1
44669 39642 39696 1
44670 39643 39644 am
44671 39644 39645 am
44672 39644 39653 1
44673 39645 39646 am
44674 39645 39650 1
44675 39646 39647 am
44676 39647 39648 am
44677 39647 39667 am
44678 39648 39649 am
44679 39648 39665 1
44680 39649 39681 1
44681 39650 39651 1
44682 39650 39697 1
44683 39650 39726 1
44684 39651 39652 am
44685 39651 39657 am
44686 39652 39653 1
44687 39652 39654 am
44688 39653 39698 1
44689 39653 39727 1
44690 39654 39655 am
44691 39654 39685 1
44692 39655 39656 am
44693 39655 39661 1
44694 39656 39657 am
44695 39656 39658 1
44696 39657 39662 am
44697 39658 39659 1
44698 39658 39664 am
44699 39659 39660 1
44700 39659 39699 1
44701 39659 39700 1
44702 39660 39661 1
44703 39660 39701 1
44704 39660 39702 1
44705 39661 39703 1
44706 39661 39704 1
44707 39662 39663 am
44708 39662 39705 1
44709 39663 39664 am
44710 39663 39684 1
44711 39664 39706 1
44712 39665 39666 1
44713 39665 39707 1
44714 39665 39708 1
44715 39666 39667 am
44716 39666 39671 am
44717 39667 39668 am
44718 39668 39669 am
44719 39668 39709 1
44720 39669 39670 am
44721 39669 39678 am
44722 39670 39671 am
44723 39670 39675 am
44724 39671 39672 am
44725 39672 39673 am
44726 39672 39710 1
44727 39673 39674 am
44728 39673 39682 1
44729 39674 39675 am
44730 39674 39711 1
44731 39675 39676 am
44732 39676 39677 am
44733 39676 39686 1
44734 39677 39678 am
44735 39677 39712 1
44736 39678 39713 1
44737 39679 39714 1
44738 39680 39715 1
44739 39680 39716 1
44740 39680 39717 1
44741 39681 39718 1
44742 39682 39683 1
44743 39682 39719 1
44744 39682 39728 1
44745 39683 39720 1
44746 39683 39721 1
44747 39683 39722 1
44748 39684 39723 1
44749 39685 39724 1
44750 39686 39725 1
44751 39729 39730 am
44752 39734 39729 am
44753 39729 39781 1
44754 39730 39731 am
44755 39730 39789 1
44756 39731 39732 am
44757 39731 39737 1
44758 39732 39733 am
44759 39732 39735 1
44760 39733 39734 am
44761 39733 39790 1
44762 39734 39782 1
44763 39735 39736 am
44764 39735 39741 am
44765 39736 39737 1
44766 39736 39738 am
44767 39737 39791 1
44768 39737 39792 1
44769 39738 39739 am
44770 39738 39751 am
44771 39739 39740 am
44772 39739 39748 am
44773 39740 39741 am
44774 39740 39745 1
44775 39741 39742 1
44776 39742 39743 1
44777 39742 39793 1
44778 39742 39794 1
44779 39743 39744 1
44780 39743 39795 1
44781 39743 39796 1
44782 39744 39745 1
44783 39744 39797 1
44784 39744 39798 1
44785 39745 39746 am
44786 39746 39747 am
44787 39746 39755 1
44788 39747 39748 am
44789 39747 39752 1
44790 39748 39749 am
44791 39749 39750 am
44792 39749 39769 am
44793 39750 39751 am
44794 39750 39767 1
44795 39751 39783 1
44796 39752 39753 1
44797 39752 39799 1
44798 39752 39828 1
44799 39753 39754 am
44800 39753 39759 am
44801 39754 39755 1
44802 39754 39756 am
44803 39755 39800 1
44804 39755 39829 1
44805 39756 39757 am
44806 39756 39787 1
44807 39757 39758 am
44808 39757 39763 1
44809 39758 39759 am
44810 39758 39760 1
44811 39759 39764 am
44812 39760 39761 1
44813 39760 39766 am
44814 39761 39762 1
44815 39761 39801 1
44816 39761 39802 1
44817 39762 39763 1
44818 39762 39803 1
44819 39762 39804 1
44820 39763 39805 1
44821 39763 39806 1
44822 39764 39765 am
44823 39764 39807 1
44824 39765 39766 am
44825 39765 39786 1
44826 39766 39808 1
44827 39767 39768 1
44828 39767 39809 1
44829 39767 39810 1
44830 39768 39769 am
44831 39768 39773 am
44832 39769 39770 am
44833 39770 39771 am
44834 39770 39811 1
44835 39771 39772 am
44836 39771 39780 am
44837 39772 39773 am
44838 39772 39777 am
44839 39773 39774 am
44840 39774 39775 am
44841 39774 39812 1
44842 39775 39776 am
44843 39775 39784 1
44844 39776 39777 am
44845 39776 39813 1
44846 39777 39778 am
44847 39778 39779 am
44848 39778 39788 1
44849 39779 39780 am
44850 39779 39814 1
44851 39780 39815 1
44852 39781 39816 1
44853 39782 39817 1
44854 39782 39818 1
44855 39782 39819 1
44856 39783 39820 1
44857 39784 39785 1
44858 39784 39821 1
44859 39784 39830 1
44860 39785 39822 1
44861 39785 39823 1
44862 39785 39824 1
44863 39786 39825 1
44864 39787 39826 1
44865 39788 39827 1
44866 39831 39832 am
44867 39836 39831 am
44868 39831 39883 1
44869 39832 39833 am
44870 39832 39891 1
44871 39833 39834 am
44872 39833 39839 1
44873 39834 39835 am
44874 39834 39837 1
44875 39835 39836 am
44876 39835 39892 1
44877 39836 39884 1
44878 39837 39838 am
44879 39837 39843 am
44880 39838 39839 1
44881 39838 39840 am
44882 39839 39893 1
44883 39839 39894 1
44884 39840 39841 am
44885 39840 39853 am
44886 39841 39842 am
44887 39841 39850 am
44888 39842 39843 am
44889 39842 39847 1
44890 39843 39844 1
44891 39844 39845 1
44892 39844 39895 1
44893 39844 39896 1
44894 39845 39846 1
44895 39845 39897 1
44896 39845 39898 1
44897 39846 39847 1
44898 39846 39899 1
44899 39846 39900 1
44900 39847 39848 am
44901 39848 39849 am
44902 39848 39857 1
44903 39849 39850 am
44904 39849 39854 1
44905 39850 39851 am
44906 39851 39852 am
44907 39851 39871 am
44908 39852 39853 am
44909 39852 39869 1
44910 39853 39885 1
44911 39854 39855 1
44912 39854 39901 1
44913 39854 39930 1
44914 39855 39856 am
44915 39855 39861 am
44916 39856 39857 1
44917 39856 39858 am
44918 39857 39902 1
44919 39857 39931 1
44920 39858 39859 am
44921 39858 39889 1
44922 39859 39860 am
44923 39859 39865 1
44924 39860 39861 am
44925 39860 39862 1
44926 39861 39866 am
44927 39862 39863 1
44928 39862 39868 am
44929 39863 39864 1
44930 39863 39903 1
44931 39863 39904 1
44932 39864 39865 1
44933 39864 39905 1
44934 39864 39906 1
44935 39865 39907 1
44936 39865 39908 1
44937 39866 39867 am
44938 39866 39909 1
44939 39867 39868 am
44940 39867 39888 1
44941 39868 39910 1
44942 39869 39870 1
44943 39869 39911 1
44944 39869 39912 1
44945 39870 39871 am
44946 39870 39875 am
44947 39871 39872 am
44948 39872 39873 am
44949 39872 39913 1
44950 39873 39874 am
44951 39873 39882 am
44952 39874 39875 am
44953 39874 39879 am
44954 39875 39876 am
44955 39876 39877 am
44956 39876 39914 1
44957 39877 39878 am
44958 39877 39886 1
44959 39878 39879 am
44960 39878 39915 1
44961 39879 39880 am
44962 39880 39881 am
44963 39880 39890 1
44964 39881 39882 am
44965 39881 39916 1
44966 39882 39917 1
44967 39883 39918 1
44968 39884 39919 1
44969 39884 39920 1
44970 39884 39921 1
44971 39885 39922 1
44972 39886 39887 1
44973 39886 39923 1
44974 39886 39932 1
44975 39887 39924 1
44976 39887 39925 1
44977 39887 39926 1
44978 39888 39927 1
44979 39889 39928 1
44980 39890 39929 1
44981 39933 39934 am
44982 39938 39933 am
44983 39933 39985 1
44984 39934 39935 am
44985 39934 39993 1
44986 39935 39936 am
44987 39935 39941 1
44988 39936 39937 am
44989 39936 39939 1
44990 39937 39938 am
44991 39937 39994 1
44992 39938 39986 1
44993 39939 39940 am
44994 39939 39945 am
44995 39940 39941 1
44996 39940 39942 am
44997 39941 39995 1
44998 39941 39996 1
44999 39942 39943 am
45000 39942 39955 am
45001 39943 39944 am
45002 39943 39952 am
45003 39944 39945 am
45004 39944 39949 1
45005 39945 39946 1
45006 39946 39947 1
45007 39946 39997 1
45008 39946 39998 1
45009 39947 39948 1
45010 39947 39999 1
45011 39947 40000 1
45012 39948 39949 1
45013 39948 40001 1
45014 39948 40002 1
45015 39949 39950 am
45016 39950 39951 am
45017 39950 39959 1
45018 39951 39952 am
45019 39951 39956 1
45020 39952 39953 am
45021 39953 39954 am
45022 39953 39973 am
45023 39954 39955 am
45024 39954 39971 1
45025 39955 39987 1
45026 39956 39957 1
45027 39956 40003 1
45028 39956 40032 1
45029 39957 39958 am
45030 39957 39963 am
45031 39958 39959 1
45032 39958 39960 am
45033 39959 40004 1
45034 39959 40033 1
45035 39960 39961 am
45036 39960 39991 1
45037 39961 39962 am
45038 39961 39967 1
45039 39962 39963 am
45040 39962 39964 1
45041 39963 39968 am
45042 39964 39965 1
45043 39964 39970 am
45044 39965 39966 1
45045 39965 40005 1
45046 39965 40006 1
45047 39966 39967 1
45048 39966 40007 1
45049 39966 40008 1
45050 39967 40009 1
45051 39967 40010 1
45052 39968 39969 am
45053 39968 40011 1
45054 39969 39970 am
45055 39969 39990 1
45056 39970 40012 1
45057 39971 39972 1
45058 39971 40013 1
45059 39971 40014 1
45060 39972 39973 am
45061 39972 39977 am
45062 39973 39974 am
45063 39974 39975 am
45064 39974 40015 1
45065 39975 39976 am
45066 39975 39984 am
45067 39976 39977 am
45068 39976 39981 am
45069 39977 39978 am
45070 39978 39979 am
45071 39978 40016 1
45072 39979 39980 am
45073 39979 39988 1
45074 39980 39981 am
45075 39980 40017 1
45076 39981 39982 am
45077 39982 39983 am
45078 39982 39992 1
45079 39983 39984 am
45080 39983 40018 1
45081 39984 40019 1
45082 39985 40020 1
45083 39986 40021 1
45084 39986 40022 1
45085 39986 40023 1
45086 39987 40024 1
45087 39988 39989 1
45088 39988 40025 1
45089 39988 40034 1
45090 39989 40026 1
45091 39989 40027 1
45092 39989 40028 1
45093 39990 40029 1
45094 39991 40030 1
45095 39992 40031 1
45096 40035 40036 am
45097 40040 40035 am
45098 40035 40087 1
45099 40036 40037 am
45100 40036 40095 1
45101 40037 40038 am
45102 40037 40043 1
45103 40038 40039 am
45104 40038 40041 1
45105 40039 40040 am
45106 40039 40096 1
45107 40040 40088 1
45108 40041 40042 am
45109 40041 40047 am
45110 40042 40043 1
45111 40042 40044 am
45112 40043 40097 1
45113 40043 40098 1
45114 40044 40045 am
45115 40044 40057 am
45116 40045 40046 am
45117 40045 40054 am
45118 40046 40047 am
45119 40046 40051 1
45120 40047 40048 1
45121 40048 40049 1
45122 40048 40099 1
45123 40048 40100 1
45124 40049 40050 1
45125 40049 40101 1
45126 40049 40102 1
45127 40050 40051 1
45128 40050 40103 1
45129 40050 40104 1
45130 40051 40052 am
45131 40052 40053 am
45132 40052 40061 1
45133 40053 40054 am
45134 40053 40058 1
45135 40054 40055 am
45136 40055 40056 am
45137 40055 40075 am
45138 40056 40057 am
45139 40056 40073 1
45140 40057 40089 1
45141 40058 40059 1
45142 40058 40105 1
45143 40058 40134 1
45144 40059 40060 am
45145 40059 40065 am
45146 40060 40061 1
45147 40060 40062 am
45148 40061 40106 1
45149 40061 40135 1
45150 40062 40063 am
45151 40062 40093 1
45152 40063 40064 am
45153 40063 40069 1
45154 40064 40065 am
45155 40064 40066 1
45156 40065 40070 am
45157 40066 40067 1
45158 40066 40072 am
45159 40067 40068 1
45160 40067 40107 1
45161 40067 40108 1
45162 40068 40069 1
45163 40068 40109 1
45164 40068 40110 1
45165 40069 40111 1
45166 40069 40112 1
45167 40070 40071 am
45168 40070 40113 1
45169 40071 40072 am
45170 40071 40092 1
45171 40072 40114 1
45172 40073 40074 1
45173 40073 40115 1
45174 40073 40116 1
45175 40074 40075 am
45176 40074 40079 am
45177 40075 40076 am
45178 40076 40077 am
45179 40076 40117 1
45180 40077 40078 am
45181 40077 40086 am
45182 40078 40079 am
45183 40078 40083 am
45184 40079 40080 am
45185 40080 40081 am
45186 40080 40118 1
45187 40081 40082 am
45188 40081 40090 1
45189 40082 40083 am
45190 40082 40119 1
45191 40083 40084 am
45192 40084 40085 am
45193 40084 40094 1
45194 40085 40086 am
45195 40085 40120 1
45196 40086 40121 1
45197 40087 40122 1
45198 40088 40123 1
45199 40088 40124 1
45200 40088 40125 1
45201 40089 40126 1
45202 40090 40091 1
45203 40090 40127 1
45204 40090 40136 1
45205 40091 40128 1
45206 40091 40129 1
45207 40091 40130 1
45208 40092 40131 1
45209 40093 40132 1
45210 40094 40133 1
45211 40137 40138 am
45212 40142 40137 am
45213 40137 40189 1
45214 40138 40139 am
45215 40138 40197 1
45216 40139 40140 am
45217 40139 40145 1
45218 40140 40141 am
45219 40140 40143 1
45220 40141 40142 am
45221 40141 40198 1
45222 40142 40190 1
45223 40143 40144 am
45224 40143 40149 am
45225 40144 40145 1
45226 40144 40146 am
45227 40145 40199 1
45228 40145 40200 1
45229 40146 40147 am
45230 40146 40159 am
45231 40147 40148 am
45232 40147 40156 am
45233 40148 40149 am
45234 40148 40153 1
45235 40149 40150 1
45236 40150 40151 1
45237 40150 40201 1
45238 40150 40202 1
45239 40151 40152 1
45240 40151 40203 1
45241 40151 40204 1
45242 40152 40153 1
45243 40152 40205 1
45244 40152 40206 1
45245 40153 40154 am
45246 40154 40155 am
45247 40154 40163 1
45248 40155 40156 am
45249 40155 40160 1
45250 40156 40157 am
45251 40157 40158 am
45252 40157 40177 am
45253 40158 40159 am
45254 40158 40175 1
45255 40159 40191 1
45256 40160 40161 1
45257 40160 40207 1
45258 40160 40236 1
45259 40161 40162 am
45260 40161 40167 am
45261 40162 40163 1
45262 40162 40164 am
45263 40163 40208 1
45264 40163 40237 1
45265 40164 40165 am
45266 40164 40195 1
45267 40165 40166 am
45268 40165 40171 1
45269 40166 40167 am
45270 40166 40168 1
45271 40167 40172 am
45272 40168 40169 1
45273 40168 40174 am
45274 40169 40170 1
45275 40169 40209 1
45276 40169 40210 1
45277 40170 40171 1
45278 40170 40211 1
45279 40170 40212 1
45280 40171 40213 1
45281 40171 40214 1
45282 40172 40173 am
45283 40172 40215 1
45284 40173 40174 am
45285 40173 40194 1
45286 40174 40216 1
45287 40175 40176 1
45288 40175 40217 1
45289 40175 40218 1
45290 40176 40177 am
45291 40176 40181 am
45292 40177 40178 am
45293 40178 40179 am
45294 40178 40219 1
45295 40179 40180 am
45296 40179 40188 am
45297 40180 40181 am
45298 40180 40185 am
45299 40181 40182 am
45300 40182 40183 am
45301 40182 40220 1
45302 40183 40184 am
45303 40183 40192 1
45304 40184 40185 am
45305 40184 40221 1
45306 40185 40186 am
45307 40186 40187 am
45308 40186 40196 1
45309 40187 40188 am
45310 40187 40222 1
45311 40188 40223 1
45312 40189 40224 1
45313 40190 40225 1
45314 40190 40226 1
45315 40190 40227 1
45316 40191 40228 1
45317 40192 40193 1
45318 40192 40229 1
45319 40192 40238 1
45320 40193 40230 1
45321 40193 40231 1
45322 40193 40232 1
45323 40194 40233 1
45324 40195 40234 1
45325 40196 40235 1
45326 40239 40240 am
45327 40244 40239 am
45328 40239 40291 1
45329 40240 40241 am
45330 40240 40299 1
45331 40241 40242 am
45332 40241 40247 1
45333 40242 40243 am
45334 40242 40245 1
45335 40243 40244 am
45336 40243 40300 1
45337 40244 40292 1
45338 40245 40246 am
45339 40245 40251 am
45340 40246 40247 1
45341 40246 40248 am
45342 40247 40301 1
45343 40247 40302 1
45344 40248 40249 am
45345 40248 40261 am
45346 40249 40250 am
45347 40249 40258 am
45348 40250 40251 am
45349 40250 40255 1
45350 40251 40252 1
45351 40252 40253 1
45352 40252 40303 1
45353 40252 40304 1
45354 40253 40254 1
45355 40253 40305 1
45356 40253 40306 1
45357 40254 40255 1
45358 40254 40307 1
45359 40254 40308 1
45360 40255 40256 am
45361 40256 40257 am
45362 40256 40265 1
45363 40257 40258 am
45364 40257 40262 1
45365 40258 40259 am
45366 40259 40260 am
45367 40259 40279 am
45368 40260 40261 am
45369 40260 40277 1
45370 40261 40293 1
45371 40262 40263 1
45372 40262 40309 1
45373 40262 40338 1
45374 40263 40264 am
45375 40263 40269 am
45376 40264 40265 1
45377 40264 40266 am
45378 40265 40310 1
45379 40265 40339 1
45380 40266 40267 am
45381 40266 40297 1
45382 40267 40268 am
45383 40267 40273 1
45384 40268 40269 am
45385 40268 40270 1
45386 40269 40274 am
45387 40270 40271 1
45388 40270 40276 am
45389 40271 40272 1
45390 40271 40311 1
45391 40271 40312 1
45392 40272 40273 1
45393 40272 40313 1
45394 40272 40314 1
45395 40273 40315 1
45396 40273 40316 1
45397 40274 40275 am
45398 40274 40317 1
45399 40275 40276 am
45400 40275 40296 1
45401 40276 40318 1
45402 40277 40278 1
45403 40277 40319 1
45404 40277 40320 1
45405 40278 40279 am
45406 40278 40283 am
45407 40279 40280 am
45408 40280 40281 am
45409 40280 40321 1
45410 40281 40282 am
45411 40281 40290 am
45412 40282 40283 am
45413 40282 40287 am
45414 40283 40284 am
45415 40284 40285 am
45416 40284 40322 1
45417 40285 40286 am
45418 40285 40294 1
45419 40286 40287 am
45420 40286 40323 1
45421 40287 40288 am
45422 40288 40289 am
45423 40288 40298 1
45424 40289 40290 am
45425 40289 40324 1
45426 40290 40325 1
45427 40291 40326 1
45428 40292 40327 1
45429 40292 40328 1
45430 40292 40329 1
45431 40293 40330 1
45432 40294 40295 1
45433 40294 40331 1
45434 40294 40340 1
45435 40295 40332 1
45436 40295 40333 1
45437 40295 40334 1
45438 40296 40335 1
45439 40297 40336 1
45440 40298 40337 1
45441 40341 40342 1
45442 40341 40346 1
45443 40341 40488 1
45444 40341 40489 1
45445 40343 40342 1
45446 40342 40490 1
45447 40342 40491 1
45448 40344 40343 1
45449 40343 40350 1
45450 40343 40492 1
45451 40345 40344 1
45452 40344 40347 1
45453 40344 40493 1
45454 40346 40345 1
45455 40345 40494 1
45456 40345 40495 1
45457 40348 40347 1
45458 40347 40354 1
45459 40347 40496 1
45460 40349 40348 1
45461 40348 40351 1
45462 40348 40497 1
45463 40350 40349 1
45464 40349 40498 1
45465 40349 40499 1
45466 40350 40500 1
45467 40350 40501 1
45468 40352 40351 1
45469 40353 40352 1
45470 40352 40358 1
45471 40352 40502 1
45472 40354 40353 1
45473 40353 40355 1
45474 40353 40503 1
45475 40354 40504 1
45476 40354 40505 1
45477 40356 40355 1
45478 40355 40365 2
45479 40357 40356 1
45480 40356 40362 1
45481 40358 40357 1
45482 40357 40359 1
45483 40358 40370 1
45484 40358 40506 1
45485 40360 40359 1
45486 40359 40372 1
45487 40361 40360 1
45488 40360 40369 1
45489 40362 40361 1
45490 40361 40366 1
45491 40362 40363 1
45492 40364 40363 1
45493 40363 40507 1
45494 40363 40508 1
45495 40365 40364 1
45496 40364 40509 1
45497 40364 40510 1
45498 40365 40511 1
45499 40367 40366 1
45500 40368 40367 1
45501 40367 40403 1
45502 40369 40368 1
45503 40368 40387 1
45504 40369 40385 1
45505 40371 40370 1
45506 40370 40376 2
45507 40372 40371 1
45508 40371 40373 1
45509 40371 40512 1
45510 40372 40386 1
45511 40374 40373 2
45512 40373 40380 1
45513 40375 40374 1
45514 40374 40377 1
45515 40376 40375 1
45516 40375 40513 1
45517 40375 40514 1
45518 40376 40515 1
45519 40378 40377 1
45520 40377 40516 1
45521 40377 40517 1
45522 40379 40378 1
45523 40378 40518 1
45524 40378 40519 1
45525 40380 40379 2
45526 40379 40384 1
45527 40380 40381 1
45528 40382 40381 1
45529 40381 40520 1
45530 40381 40521 1
45531 40383 40382 1
45532 40382 40457 1
45533 40382 40522 1
45534 40384 40383 1
45535 40383 40523 1
45536 40383 40524 1
45537 40384 40525 1
45538 40384 40526 1
45539 40386 40385 1
45540 40385 40389 1
45541 40386 40527 1
45542 40388 40387 1
45543 40387 40393 1
45544 40389 40388 1
45545 40388 40390 1
45546 40391 40390 1
45547 40390 40528 1
45548 40392 40391 1
45549 40391 40397 1
45550 40393 40392 1
45551 40392 40394 1
45552 40393 40402 1
45553 40395 40394 1
45554 40394 40404 1
45555 40396 40395 1
45556 40395 40401 1
45557 40397 40396 1
45558 40396 40398 1
45559 40397 40529 1
45560 40399 40398 1
45561 40398 40414 1
45562 40400 40399 1
45563 40399 40411 1
45564 40401 40400 1
45565 40400 40408 1
45566 40401 40406 1
45567 40403 40402 1
45568 40402 40405 1
45569 40403 40530 1
45570 40405 40404 1
45571 40404 40407 1
45572 40405 40423 1
45573 40407 40406 1
45574 40406 40410 1
45575 40407 40425 1
45576 40409 40408 1
45577 40408 40441 1
45578 40410 40409 1
45579 40409 40436 1
45580 40410 40434 1
45581 40412 40411 1
45582 40413 40412 1
45583 40412 40418 1
45584 40412 40531 1
45585 40414 40413 1
45586 40413 40415 1
45587 40413 40532 1
45588 40414 40460 1
45589 40414 40533 1
45590 40416 40415 1
45591 40415 40534 1
45592 40415 40535 1
45593 40417 40416 1
45594 40416 40536 1
45595 40416 40537 1
45596 40418 40417 1
45597 40417 40422 1
45598 40417 40538 1
45599 40418 40419 1
45600 40418 40539 1
45601 40420 40419 1
45602 40419 40540 1
45603 40419 40541 1
45604 40421 40420 1
45605 40420 40542 1
45606 40420 40543 1
45607 40422 40421 1
45608 40421 40544 1
45609 40421 40545 1
45610 40422 40546 1
45611 40424 40423 1
45612 40423 40429 1
45613 40425 40424 1
45614 40424 40426 1
45615 40425 40435 1
45616 40427 40426 1
45617 40428 40427 1
45618 40427 40433 1
45619 40427 40547 1
45620 40429 40428 1
45621 40428 40430 1
45622 40428 40548 1
45623 40431 40430 1
45624 40430 40549 1
45625 40430 40550 1
45626 40432 40431 1
45627 40431 40551 1
45628 40431 40552 1
45629 40433 40432 1
45630 40432 40553 1
45631 40432 40554 1
45632 40433 40555 1
45633 40433 40556 1
45634 40435 40434 1
45635 40434 40438 1
45636 40435 40557 1
45637 40437 40436 1
45638 40436 40439 1
45639 40438 40437 1
45640 40437 40442 1
45641 40438 40558 1
45642 40440 40439 1
45643 40439 40444 1
45644 40441 40440 1
45645 40440 40445 1
45646 40441 40559 1
45647 40443 40442 1
45648 40444 40443 1
45649 40443 40454 1
45650 40444 40447 1
45651 40446 40445 1
45652 40445 40451 1
45653 40445 40560 1
45654 40447 40446 1
45655 40446 40448 1
45656 40446 40561 1
45657 40447 40452 1
45658 40449 40448 1
45659 40448 40455 1
45660 40448 40562 1
45661 40450 40449 1
45662 40449 40563 1
45663 40449 40564 1
45664 40451 40450 1
45665 40450 40565 1
45666 40450 40566 1
45667 40451 40567 1
45668 40451 40568 1
45669 40453 40452 1
45670 40452 40456 1
45671 40454 40453 1
45672 40453 40464 1
45673 40454 40461 1
45674 40455 40456 1
45675 40455 40479 1
45676 40456 40475 1
45677 40457 40458 1
45678 40457 40459 1
45679 40457 40569 1
45680 40458 40570 1
45681 40458 40571 1
45682 40458 40572 1
45683 40459 40573 1
45684 40459 40574 1
45685 40459 40575 1
45686 40460 40576 1
45687 40462 40461 1
45688 40461 40577 1
45689 40463 40462 1
45690 40462 40578 1
45691 40464 40463 1
45692 40463 40468 1
45693 40464 40465 1
45694 40466 40465 1
45695 40465 40475 1
45696 40467 40466 1
45697 40466 40472 1
45698 40468 40467 1
45699 40467 40469 1
45700 40468 40579 1
45701 40470 40469 1
45702 40469 40580 1
45703 40471 40470 1
45704 40470 40581 1
45705 40472 40471 1
45706 40471 40478 1
45707 40472 40473 1
45708 40474 40473 1
45709 40473 40476 1
45710 40475 40474 1
45711 40474 40480 1
45712 40477 40476 1
45713 40476 40481 1
45714 40478 40477 1
45715 40477 40582 1
45716 40478 40583 1
45717 40480 40479 1
45718 40479 40584 1
45719 40480 40482 1
45720 40482 40481 1
45721 40481 40486 1
45722 40482 40483 1
45723 40484 40483 1
45724 40483 40585 1
45725 40483 40586 1
45726 40485 40484 1
45727 40484 40587 1
45728 40484 40588 1
45729 40486 40485 1
45730 40485 40589 1
45731 40485 40590 1
45732 40486 40487 2
45733 40591 40592 1
45734 40591 40596 1
45735 40591 40738 1
45736 40591 40739 1
45737 40593 40592 1
45738 40592 40740 1
45739 40592 40741 1
45740 40594 40593 1
45741 40593 40600 1
45742 40593 40742 1
45743 40595 40594 1
45744 40594 40597 1
45745 40594 40743 1
45746 40596 40595 1
45747 40595 40744 1
45748 40595 40745 1
45749 40598 40597 1
45750 40597 40604 1
45751 40597 40746 1
45752 40599 40598 1
45753 40598 40601 1
45754 40598 40747 1
45755 40600 40599 1
45756 40599 40748 1
45757 40599 40749 1
45758 40600 40750 1
45759 40600 40751 1
45760 40602 40601 1
45761 40603 40602 1
45762 40602 40608 1
45763 40602 40752 1
45764 40604 40603 1
45765 40603 40605 1
45766 40603 40753 1
45767 40604 40754 1
45768 40604 40755 1
45769 40606 40605 1
45770 40605 40615 2
45771 40607 40606 1
45772 40606 40612 1
45773 40608 40607 1
45774 40607 40609 1
45775 40608 40620 1
45776 40608 40756 1
45777 40610 40609 1
45778 40609 40622 1
45779 40611 40610 1
45780 40610 40619 1
45781 40612 40611 1
45782 40611 40616 1
45783 40612 40613 1
45784 40614 40613 1
45785 40613 40757 1
45786 40613 40758 1
45787 40615 40614 1
45788 40614 40759 1
45789 40614 40760 1
45790 40615 40761 1
45791 40617 40616 1
45792 40618 40617 1
45793 40617 40653 1
45794 40619 40618 1
45795 40618 40637 1
45796 40619 40635 1
45797 40621 40620 1
45798 40620 40626 2
45799 40622 40621 1
45800 40621 40623 1
45801 40621 40762 1
45802 40622 40636 1
45803 40624 40623 2
45804 40623 40630 1
45805 40625 40624 1
45806 40624 40627 1
45807 40626 40625 1
45808 40625 40763 1
45809 40625 40764 1
45810 40626 40765 1
45811 40628 40627 1
45812 40627 40766 1
45813 40627 40767 1
45814 40629 40628 1
45815 40628 40768 1
45816 40628 40769 1
45817 40630 40629 2
45818 40629 40634 1
45819 40630 40631 1
45820 40632 40631 1
45821 40631 40770 1
45822 40631 40771 1
45823 40633 40632 1
45824 40632 40707 1
45825 40632 40772 1
45826 40634 40633 1
45827 40633 40773 1
45828 40633 40774 1
45829 40634 40775 1
45830 40634 40776 1
45831 40636 40635 1
45832 40635 40639 1
45833 40636 40777 1
45834 40638 40637 1
45835 40637 40643 1
45836 40639 40638 1
45837 40638 40640 1
45838 40641 40640 1
45839 40640 40778 1
45840 40642 40641 1
45841 40641 40647 1
45842 40643 40642 1
45843 40642 40644 1
45844 40643 40652 1
45845 40645 40644 1
45846 40644 40654 1
45847 40646 40645 1
45848 40645 40651 1
45849 40647 40646 1
45850 40646 40648 1
45851 40647 40779 1
45852 40649 40648 1
45853 40648 40664 1
45854 40650 40649 1
45855 40649 40661 1
45856 40651 40650 1
45857 40650 40658 1
45858 40651 40656 1
45859 40653 40652 1
45860 40652 40655 1
45861 40653 40780 1
45862 40655 40654 1
45863 40654 40657 1
45864 40655 40673 1
45865 40657 40656 1
45866 40656 40660 1
45867 40657 40675 1
45868 40659 40658 1
45869 40658 40691 1
45870 40660 40659 1
45871 40659 40686 1
45872 40660 40684 1
45873 40662 40661 1
45874 40663 40662 1
45875 40662 40668 1
45876 40662 40781 1
45877 40664 40663 1
45878 40663 40665 1
45879 40663 40782 1
45880 40664 40710 1
45881 40664 40783 1
45882 40666 40665 1
45883 40665 40784 1
45884 40665 40785 1
45885 40667 40666 1
45886 40666 40786 1
45887 40666 40787 1
45888 40668 40667 1
45889 40667 40672 1
45890 40667 40788 1
45891 40668 40669 1
45892 40668 40789 1
45893 40670 40669 1
45894 40669 40790 1
45895 40669 40791 1
45896 40671 40670 1
45897 40670 40792 1
45898 40670 40793 1
45899 40672 40671 1
45900 40671 40794 1
45901 40671 40795 1
45902 40672 40796 1
45903 40674 40673 1
45904 40673 40679 1
45905 40675 40674 1
45906 40674 40676 1
45907 40675 40685 1
45908 40677 40676 1
45909 40678 40677 1
45910 40677 40683 1
45911 40677 40797 1
45912 40679 40678 1
45913 40678 40680 1
45914 40678 40798 1
45915 40681 40680 1
45916 40680 40799 1
45917 40680 40800 1
45918 40682 40681 1
45919 40681 40801 1
45920 40681 40802 1
45921 40683 40682 1
45922 40682 40803 1
45923 40682 40804 1
45924 40683 40805 1
45925 40683 40806 1
45926 40685 40684 1
45927 40684 40688 1
45928 40685 40807 1
45929 40687 40686 1
45930 40686 40689 1
45931 40688 40687 1
45932 40687 40692 1
45933 40688 40808 1
45934 40690 40689 1
45935 40689 40694 1
45936 40691 40690 1
45937 40690 40695 1
45938 40691 40809 1
45939 40693 40692 1
45940 40694 40693 1
45941 40693 40704 1
45942 40694 40697 1
45943 40696 40695 1
45944 40695 40701 1
45945 40695 40810 1
45946 40697 40696 1
45947 40696 40698 1
45948 40696 40811 1
45949 40697 40702 1
45950 40699 40698 1
45951 40698 40705 1
45952 40698 40812 1
45953 40700 40699 1
45954 40699 40813 1
45955 40699 40814 1
45956 40701 40700 1
45957 40700 40815 1
45958 40700 40816 1
45959 40701 40817 1
45960 40701 40818 1
45961 40703 40702 1
45962 40702 40706 1
45963 40704 40703 1
45964 40703 40714 1
45965 40704 40711 1
45966 40705 40706 1
45967 40705 40729 1
45968 40706 40725 1
45969 40707 40708 1
45970 40707 40709 1
45971 40707 40819 1
45972 40708 40820 1
45973 40708 40821 1
45974 40708 40822 1
45975 40709 40823 1
45976 40709 40824 1
45977 40709 40825 1
45978 40710 40826 1
45979 40712 40711 1
45980 40711 40827 1
45981 40713 40712 1
45982 40712 40828 1
45983 40714 40713 1
45984 40713 40718 1
45985 40714 40715 1
45986 40716 40715 1
45987 40715 40725 1
45988 40717 40716 1
45989 40716 40722 1
45990 40718 40717 1
45991 40717 40719 1
45992 40718 40829 1
45993 40720 40719 1
45994 40719 40830 1
45995 40721 40720 1
45996 40720 40831 1
45997 40722 40721 1
45998 40721 40728 1
45999 40722 40723 1
46000 40724 40723 1
46001 40723 40726 1
46002 40725 40724 1
46003 40724 40730 1
46004 40727 40726 1
46005 40726 40731 1
46006 40728 40727 1
46007 40727 40832 1
46008 40728 40833 1
46009 40730 40729 1
46010 40729 40834 1
46011 40730 40732 1
46012 40732 40731 1
46013 40731 40736 1
46014 40732 40733 1
46015 40734 40733 1
46016 40733 40835 1
46017 40733 40836 1
46018 40735 40734 1
46019 40734 40837 1
46020 40734 40838 1
46021 40736 40735 1
46022 40735 40839 1
46023 40735 40840 1
46024 40736 40737 2
46025 40841 40842 1
46026 40841 40846 1
46027 40841 40988 1
46028 40841 40989 1
46029 40843 40842 1
46030 40842 40990 1
46031 40842 40991 1
46032 40844 40843 1
46033 40843 40850 1
46034 40843 40992 1
46035 40845 40844 1
46036 40844 40847 1
46037 40844 40993 1
46038 40846 40845 1
46039 40845 40994 1
46040 40845 40995 1
46041 40848 40847 1
46042 40847 40854 1
46043 40847 40996 1
46044 40849 40848 1
46045 40848 40851 1
46046 40848 40997 1
46047 40850 40849 1
46048 40849 40998 1
46049 40849 40999 1
46050 40850 41000 1
46051 40850 41001 1
46052 40852 40851 1
46053 40853 40852 1
46054 40852 40858 1
46055 40852 41002 1
46056 40854 40853 1
46057 40853 40855 1
46058 40853 41003 1
46059 40854 41004 1
46060 40854 41005 1
46061 40856 40855 1
46062 40855 40865 2
46063 40857 40856 1
46064 40856 40862 1
46065 40858 40857 1
46066 40857 40859 1
46067 40858 40870 1
46068 40858 41006 1
46069 40860 40859 1
46070 40859 40872 1
46071 40861 40860 1
46072 40860 40869 1
46073 40862 40861 1
46074 40861 40866 1
46075 40862 40863 1
46076 40864 40863 1
46077 40863 41007 1
46078 40863 41008 1
46079 40865 40864 1
46080 40864 41009 1
46081 40864 41010 1
46082 40865 41011 1
46083 40867 40866 1
46084 40868 40867 1
46085 40867 40903 1
46086 40869 40868 1
46087 40868 40887 1
46088 40869 40885 1
46089 40871 40870 1
46090 40870 40876 2
46091 40872 40871 1
46092 40871 40873 1
46093 40871 41012 1
46094 40872 40886 1
46095 40874 40873 2
46096 40873 40880 1
46097 40875 40874 1
46098 40874 40877 1
46099 40876 40875 1
46100 40875 41013 1
46101 40875 41014 1
46102 40876 41015 1
46103 40878 40877 1
46104 40877 41016 1
46105 40877 41017 1
46106 40879 40878 1
46107 40878 41018 1
46108 40878 41019 1
46109 40880 40879 2
46110 40879 40884 1
46111 40880 40881 1
46112 40882 40881 1
46113 40881 41020 1
46114 40881 41021 1
46115 40883 40882 1
46116 40882 40957 1
46117 40882 41022 1
46118 40884 40883 1
46119 40883 41023 1
46120 40883 41024 1
46121 40884 41025 1
46122 40884 41026 1
46123 40886 40885 1
46124 40885 40889 1
46125 40886 41027 1
46126 40888 40887 1
46127 40887 40893 1
46128 40889 40888 1
46129 40888 40890 1
46130 40891 40890 1
46131 40890 41028 1
46132 40892 40891 1
46133 40891 40897 1
46134 40893 40892 1
46135 40892 40894 1
46136 40893 40902 1
46137 40895 40894 1
46138 40894 40904 1
46139 40896 40895 1
46140 40895 40901 1
46141 40897 40896 1
46142 40896 40898 1
46143 40897 41029 1
46144 40899 40898 1
46145 40898 40914 1
46146 40900 40899 1
46147 40899 40911 1
46148 40901 40900 1
46149 40900 40908 1
46150 40901 40906 1
46151 40903 40902 1
46152 40902 40905 1
46153 40903 41030 1
46154 40905 40904 1
46155 40904 40907 1
46156 40905 40923 1
46157 40907 40906 1
46158 40906 40910 1
46159 40907 40925 1
46160 40909 40908 1
46161 40908 40941 1
46162 40910 40909 1
46163 40909 40936 1
46164 40910 40934 1
46165 40912 40911 1
46166 40913 40912 1
46167 40912 40918 1
46168 40912 41031 1
46169 40914 40913 1
46170 40913 40915 1
46171 40913 41032 1
46172 40914 40960 1
46173 40914 41033 1
46174 40916 40915 1
46175 40915 41034 1
46176 40915 41035 1
46177 40917 40916 1
46178 40916 41036 1
46179 40916 41037 1
46180 40918 40917 1
46181 40917 40922 1
46182 40917 41038 1
46183 40918 40919 1
46184 40918 41039 1
46185 40920 40919 1
46186 40919 41040 1
46187 40919 41041 1
46188 40921 40920 1
46189 40920 41042 1
46190 40920 41043 1
46191 40922 40921 1
46192 40921 41044 1
46193 40921 41045 1
46194 40922 41046 1
46195 40924 40923 1
46196 40923 40929 1
46197 40925 40924 1
46198 40924 40926 1
46199 40925 40935 1
46200 40927 40926 1
46201 40928 40927 1
46202 40927 40933 1
46203 40927 41047 1
46204 40929 40928 1
46205 40928 40930 1
46206 40928 41048 1
46207 40931 40930 1
46208 40930 41049 1
46209 40930 41050 1
46210 40932 40931 1
46211 40931 41051 1
46212 40931 41052 1
46213 40933 40932 1
46214 40932 41053 1
46215 40932 41054 1
46216 40933 41055 1
46217 40933 41056 1
46218 40935 40934 1
46219 40934 40938 1
46220 40935 41057 1
46221 40937 40936 1
46222 40936 40939 1
46223 40938 40937 1
46224 40937 40942 1
46225 40938 41058 1
46226 40940 40939 1
46227 40939 40944 1
46228 40941 40940 1
46229 40940 40945 1
46230 40941 41059 1
46231 40943 40942 1
46232 40944 40943 1
46233 40943 40954 1
46234 40944 40947 1
46235 40946 40945 1
46236 40945 40951 1
46237 40945 41060 1
46238 40947 40946 1
46239 40946 40948 1
46240 40946 41061 1
46241 40947 40952 1
46242 40949 40948 1
46243 40948 40955 1
46244 40948 41062 1
46245 40950 40949 1
46246 40949 41063 1
46247 40949 41064 1
46248 40951 40950 1
46249 40950 41065 1
46250 40950 41066 1
46251 40951 41067 1
46252 40951 41068 1
46253 40953 40952 1
46254 40952 40956 1
46255 40954 40953 1
46256 40953 40964 1
46257 40954 40961 1
46258 40955 40956 1
46259 40955 40979 1
46260 40956 40975 1
46261 40957 40958 1
46262 40957 40959 1
46263 40957 41069 1
46264 40958 41070 1
46265 40958 41071 1
46266 40958 41072 1
46267 40959 41073 1
46268 40959 41074 1
46269 40959 41075 1
46270 40960 41076 1
46271 40962 40961 1
46272 40961 41077 1
46273 40963 40962 1
46274 40962 41078 1
46275 40964 40963 1
46276 40963 40968 1
46277 40964 40965 1
46278 40966 40965 1
46279 40965 40975 1
46280 40967 40966 1
46281 40966 40972 1
46282 40968 40967 1
46283 40967 40969 1
46284 40968 41079 1
46285 40970 40969 1
46286 40969 41080 1
46287 40971 40970 1
46288 40970 41081 1
46289 40972 40971 1
46290 40971 40978 1
46291 40972 40973 1
46292 40974 40973 1
46293 40973 40976 1
46294 40975 40974 1
46295 40974 40980 1
46296 40977 40976 1
46297 40976 40981 1
46298 40978 40977 1
46299 40977 41082 1
46300 40978 41083 1
46301 40980 40979 1
46302 40979 41084 1
46303 40980 40982 1
46304 40982 40981 1
46305 40981 40986 1
46306 40982 40983 1
46307 40984 40983 1
46308 40983 41085 1
46309 40983 41086 1
46310 40985 40984 1
46311 40984 41087 1
46312 40984 41088 1
46313 40986 40985 1
46314 40985 41089 1
46315 40985 41090 1
46316 40986 40987 2
46317 41091 41092 1
46318 41091 41096 1
46319 41091 41238 1
46320 41091 41239 1
46321 41093 41092 1
46322 41092 41240 1
46323 41092 41241 1
46324 41094 41093 1
46325 41093 41100 1
46326 41093 41242 1
46327 41095 41094 1
46328 41094 41097 1
46329 41094 41243 1
46330 41096 41095 1
46331 41095 41244 1
46332 41095 41245 1
46333 41098 41097 1
46334 41097 41104 1
46335 41097 41246 1
46336 41099 41098 1
46337 41098 41101 1
46338 41098 41247 1
46339 41100 41099 1
46340 41099 41248 1
46341 41099 41249 1
46342 41100 41250 1
46343 41100 41251 1
46344 41102 41101 1
46345 41103 41102 1
46346 41102 41108 1
46347 41102 41252 1
46348 41104 41103 1
46349 41103 41105 1
46350 41103 41253 1
46351 41104 41254 1
46352 41104 41255 1
46353 41106 41105 1
46354 41105 41115 2
46355 41107 41106 1
46356 41106 41112 1
46357 41108 41107 1
46358 41107 41109 1
46359 41108 41120 1
46360 41108 41256 1
46361 41110 41109 1
46362 41109 41122 1
46363 41111 41110 1
46364 41110 41119 1
46365 41112 41111 1
46366 41111 41116 1
46367 41112 41113 1
46368 41114 41113 1
46369 41113 41257 1
46370 41113 41258 1
46371 41115 41114 1
46372 41114 41259 1
46373 41114 41260 1
46374 41115 41261 1
46375 41117 41116 1
46376 41118 41117 1
46377 41117 41153 1
46378 41119 41118 1
46379 41118 41137 1
46380 41119 41135 1
46381 41121 41120 1
46382 41120 41126 2
46383 41122 41121 1
46384 41121 41123 1
46385 41121 41262 1
46386 41122 41136 1
46387 41124 41123 2
46388 41123 41130 1
46389 41125 41124 1
46390 41124 41127 1
46391 41126 41125 1
46392 41125 41263 1
46393 41125 41264 1
46394 41126 41265 1
46395 41128 41127 1
46396 41127 41266 1
46397 41127 41267 1
46398 41129 41128 1
46399 41128 41268 1
46400 41128 41269 1
46401 41130 41129 2
46402 41129 41134 1
46403 41130 41131 1
46404 41132 41131 1
46405 41131 41270 1
46406 41131 41271 1
46407 41133 41132 1
46408 41132 41207 1
46409 41132 41272 1
46410 41134 41133 1
46411 41133 41273 1
46412 41133 41274 1
46413 41134 41275 1
46414 41134 41276 1
46415 41136 41135 1
46416 41135 41139 1
46417 41136 41277 1
46418 41138 41137 1
46419 41137 41143 1
46420 41139 41138 1
46421 41138 41140 1
46422 41141 41140 1
46423 41140 41278 1
46424 41142 41141 1
46425 41141 41147 1
46426 41143 41142 1
46427 41142 41144 1
46428 41143 41152 1
46429 41145 41144 1
46430 41144 41154 1
46431 41146 41145 1
46432 41145 41151 1
46433 41147 41146 1
46434 41146 41148 1
46435 41147 41279 1
46436 41149 41148 1
46437 41148 41164 1
46438 41150 41149 1
46439 41149 41161 1
46440 41151 41150 1
46441 41150 41158 1
46442 41151 41156 1
46443 41153 41152 1
46444 41152 41155 1
46445 41153 41280 1
46446 41155 41154 1
46447 41154 41157 1
46448 41155 41173 1
46449 41157 41156 1
46450 41156 41160 1
46451 41157 41175 1
46452 41159 41158 1
46453 41158 41191 1
46454 41160 41159 1
46455 41159 41186 1
46456 41160 41184 1
46457 41162 41161 1
46458 41163 41162 1
46459 41162 41168 1
46460 41162 41281 1
46461 41164 41163 1
46462 41163 41165 1
46463 41163 41282 1
46464 41164 41210 1
46465 41164 41283 1
46466 41166 41165 1
46467 41165 41284 1
46468 41165 41285 1
46469 41167 41166 1
46470 41166 41286 1
46471 41166 41287 1
46472 41168 41167 1
46473 41167 41172 1
46474 41167 41288 1
46475 41168 41169 1
46476 41168 41289 1
46477 41170 41169 1
46478 41169 41290 1
46479 41169 41291 1
46480 41171 41170 1
46481 41170 41292 1
46482 41170 41293 1
46483 41172 41171 1
46484 41171 41294 1
46485 41171 41295 1
46486 41172 41296 1
46487 41174 41173 1
46488 41173 41179 1
46489 41175 41174 1
46490 41174 41176 1
46491 41175 41185 1
46492 41177 41176 1
46493 41178 41177 1
46494 41177 41183 1
46495 41177 41297 1
46496 41179 41178 1
46497 41178 41180 1
46498 41178 41298 1
46499 41181 41180 1
46500 41180 41299 1
46501 41180 41300 1
46502 41182 41181 1
46503 41181 41301 1
46504 41181 41302 1
46505 41183 41182 1
46506 41182 41303 1
46507 41182 41304 1
46508 41183 41305 1
46509 41183 41306 1
46510 41185 41184 1
46511 41184 41188 1
46512 41185 41307 1
46513 41187 41186 1
46514 41186 41189 1
46515 41188 41187 1
46516 41187 41192 1
46517 41188 41308 1
46518 41190 41189 1
46519 41189 41194 1
46520 41191 41190 1
46521 41190 41195 1
46522 41191 41309 1
46523 41193 41192 1
46524 41194 41193 1
46525 41193 41204 1
46526 41194 41197 1
46527 41196 41195 1
46528 41195 41201 1
46529 41195 41310 1
46530 41197 41196 1
46531 41196 41198 1
46532 41196 41311 1
46533 41197 41202 1
46534 41199 41198 1
46535 41198 41205 1
46536 41198 41312 1
46537 41200 41199 1
46538 41199 41313 1
46539 41199 41314 1
46540 41201 41200 1
46541 41200 41315 1
46542 41200 41316 1
46543 41201 41317 1
46544 41201 41318 1
46545 41203 41202 1
46546 41202 41206 1
46547 41204 41203 1
46548 41203 41214 1
46549 41204 41211 1
46550 41205 41206 1
46551 41205 41229 1
46552 41206 41225 1
46553 41207 41208 1
46554 41207 41209 1
46555 41207 41319 1
46556 41208 41320 1
46557 41208 41321 1
46558 41208 41322 1
46559 41209 41323 1
46560 41209 41324 1
46561 41209 41325 1
46562 41210 41326 1
46563 41212 41211 1
46564 41211 41327 1
46565 41213 41212 1
46566 41212 41328 1
46567 41214 41213 1
46568 41213 41218 1
46569 41214 41215 1
46570 41216 41215 1
46571 41215 41225 1
46572 41217 41216 1
46573 41216 41222 1
46574 41218 41217 1
46575 41217 41219 1
46576 41218 41329 1
46577 41220 41219 1
46578 41219 41330 1
46579 41221 41220 1
46580 41220 41331 1
46581 41222 41221 1
46582 41221 41228 1
46583 41222 41223 1
46584 41224 41223 1
46585 41223 41226 1
46586 41225 41224 1
46587 41224 41230 1
46588 41227 41226 1
46589 41226 41231 1
46590 41228 41227 1
46591 41227 41332 1
46592 41228 41333 1
46593 41230 41229 1
46594 41229 41334 1
46595 41230 41232 1
46596 41232 41231 1
46597 41231 41236 1
46598 41232 41233 1
46599 41234 41233 1
46600 41233 41335 1
46601 41233 41336 1
46602 41235 41234 1
46603 41234 41337 1
46604 41234 41338 1
46605 41236 41235 1
46606 41235 41339 1
46607 41235 41340 1
46608 41236 41237 2
46609 41341 41342 1
46610 41341 41346 1
46611 41341 41488 1
46612 41341 41489 1
46613 41343 41342 1
46614 41342 41490 1
46615 41342 41491 1
46616 41344 41343 1
46617 41343 41350 1
46618 41343 41492 1
46619 41345 41344 1
46620 41344 41347 1
46621 41344 41493 1
46622 41346 41345 1
46623 41345 41494 1
46624 41345 41495 1
46625 41348 41347 1
46626 41347 41354 1
46627 41347 41496 1
46628 41349 41348 1
46629 41348 41351 1
46630 41348 41497 1
46631 41350 41349 1
46632 41349 41498 1
46633 41349 41499 1
46634 41350 41500 1
46635 41350 41501 1
46636 41352 41351 1
46637 41353 41352 1
46638 41352 41358 1
46639 41352 41502 1
46640 41354 41353 1
46641 41353 41355 1
46642 41353 41503 1
46643 41354 41504 1
46644 41354 41505 1
46645 41356 41355 1
46646 41355 41365 2
46647 41357 41356 1
46648 41356 41362 1
46649 41358 41357 1
46650 41357 41359 1
46651 41358 41370 1
46652 41358 41506 1
46653 41360 41359 1
46654 41359 41372 1
46655 41361 41360 1
46656 41360 41369 1
46657 41362 41361 1
46658 41361 41366 1
46659 41362 41363 1
46660 41364 41363 1
46661 41363 41507 1
46662 41363 41508 1
46663 41365 41364 1
46664 41364 41509 1
46665 41364 41510 1
46666 41365 41511 1
46667 41367 41366 1
46668 41368 41367 1
46669 41367 41403 1
46670 41369 41368 1
46671 41368 41387 1
46672 41369 41385 1
46673 41371 41370 1
46674 41370 41376 2
46675 41372 41371 1
46676 41371 41373 1
46677 41371 41512 1
46678 41372 41386 1
46679 41374 41373 2
46680 41373 41380 1
46681 41375 41374 1
46682 41374 41377 1
46683 41376 41375 1
46684 41375 41513 1
46685 41375 41514 1
46686 41376 41515 1
46687 41378 41377 1
46688 41377 41516 1
46689 41377 41517 1
46690 41379 41378 1
46691 41378 41518 1
46692 41378 41519 1
46693 41380 41379 2
46694 41379 41384 1
46695 41380 41381 1
46696 41382 41381 1
46697 41381 41520 1
46698 41381 41521 1
46699 41383 41382 1
46700 41382 41457 1
46701 41382 41522 1
46702 41384 41383 1
46703 41383 41523 1
46704 41383 41524 1
46705 41384 41525 1
46706 41384 41526 1
46707 41386 41385 1
46708 41385 41389 1
46709 41386 41527 1
46710 41388 41387 1
46711 41387 41393 1
46712 41389 41388 1
46713 41388 41390 1
46714 41391 41390 1
46715 41390 41528 1
46716 41392 41391 1
46717 41391 41397 1
46718 41393 41392 1
46719 41392 41394 1
46720 41393 41402 1
46721 41395 41394 1
46722 41394 41404 1
46723 41396 41395 1
46724 41395 41401 1
46725 41397 41396 1
46726 41396 41398 1
46727 41397 41529 1
46728 41399 41398 1
46729 41398 41414 1
46730 41400 41399 1
46731 41399 41411 1
46732 41401 41400 1
46733 41400 41408 1
46734 41401 41406 1
46735 41403 41402 1
46736 41402 41405 1
46737 41403 41530 1
46738 41405 41404 1
46739 41404 41407 1
46740 41405 41423 1
46741 41407 41406 1
46742 41406 41410 1
46743 41407 41425 1
46744 41409 41408 1
46745 41408 41441 1
46746 41410 41409 1
46747 41409 41436 1
46748 41410 41434 1
46749 41412 41411 1
46750 41413 41412 1
46751 41412 41418 1
46752 41412 41531 1
46753 41414 41413 1
46754 41413 41415 1
46755 41413 41532 1
46756 41414 41460 1
46757 41414 41533 1
46758 41416 41415 1
46759 41415 41534 1
46760 41415 41535 1
46761 41417 41416 1
46762 41416 41536 1
46763 41416 41537 1
46764 41418 41417 1
46765 41417 41422 1
46766 41417 41538 1
46767 41418 41419 1
46768 41418 41539 1
46769 41420 41419 1
46770 41419 41540 1
46771 41419 41541 1
46772 41421 41420 1
46773 41420 41542 1
46774 41420 41543 1
46775 41422 41421 1
46776 41421 41544 1
46777 41421 41545 1
46778 41422 41546 1
46779 41424 41423 1
46780 41423 41429 1
46781 41425 41424 1
46782 41424 41426 1
46783 41425 41435 1
46784 41427 41426 1
46785 41428 41427 1
46786 41427 41433 1
46787 41427 41547 1
46788 41429 41428 1
46789 41428 41430 1
46790 41428 41548 1
46791 41431 41430 1
46792 41430 41549 1
46793 41430 41550 1
46794 41432 41431 1
46795 41431 41551 1
46796 41431 41552 1
46797 41433 41432 1
46798 41432 41553 1
46799 41432 41554 1
46800 41433 41555 1
46801 41433 41556 1
46802 41435 41434 1
46803 41434 41438 1
46804 41435 41557 1
46805 41437 41436 1
46806 41436 41439 1
46807 41438 41437 1
46808 41437 41442 1
46809 41438 41558 1
46810 41440 41439 1
46811 41439 41444 1
46812 41441 41440 1
46813 41440 41445 1
46814 41441 41559 1
46815 41443 41442 1
46816 41444 41443 1
46817 41443 41454 1
46818 41444 41447 1
46819 41446 41445 1
46820 41445 41451 1
46821 41445 41560 1
46822 41447 41446 1
46823 41446 41448 1
46824 41446 41561 1
46825 41447 41452 1
46826 41449 41448 1
46827 41448 41455 1
46828 41448 41562 1
46829 41450 41449 1
46830 41449 41563 1
46831 41449 41564 1
46832 41451 41450 1
46833 41450 41565 1
46834 41450 41566 1
46835 41451 41567 1
46836 41451 41568 1
46837 41453 41452 1
46838 41452 41456 1
46839 41454 41453 1
46840 41453 41464 1
46841 41454 41461 1
46842 41455 41456 1
46843 41455 41479 1
46844 41456 41475 1
46845 41457 41458 1
46846 41457 41459 1
46847 41457 41569 1
46848 41458 41570 1
46849 41458 41571 1
46850 41458 41572 1
46851 41459 41573 1
46852 41459 41574 1
46853 41459 41575 1
46854 41460 41576 1
46855 41462 41461 1
46856 41461 41577 1
46857 41463 41462 1
46858 41462 41578 1
46859 41464 41463 1
46860 41463 41468 1
46861 41464 41465 1
46862 41466 41465 1
46863 41465 41475 1
46864 41467 41466 1
46865 41466 41472 1
46866 41468 41467 1
46867 41467 41469 1
46868 41468 41579 1
46869 41470 41469 1
46870 41469 41580 1
46871 41471 41470 1
46872 41470 41581 1
46873 41472 41471 1
46874 41471 41478 1
46875 41472 41473 1
46876 41474 41473 1
46877 41473 41476 1
46878 41475 41474 1
46879 41474 41480 1
46880 41477 41476 1
46881 41476 41481 1
46882 41478 41477 1
46883 41477 41582 1
46884 41478 41583 1
46885 41480 41479 1
46886 41479 41584 1
46887 41480 41482 1
46888 41482 41481 1
46889 41481 41486 1
46890 41482 41483 1
46891 41484 41483 1
46892 41483 41585 1
46893 41483 41586 1
46894 41485 41484 1
46895 41484 41587 1
46896 41484 41588 1
46897 41486 41485 1
46898 41485 41589 1
46899 41485 41590 1
46900 41486 41487 2
46901 41591 41592 1
46902 41591 41596 1
46903 41591 41738 1
46904 41591 41739 1
46905 41593 41592 1
46906 41592 41740 1
46907 41592 41741 1
46908 41594 41593 1
46909 41593 41600 1
46910 41593 41742 1
46911 41595 41594 1
46912 41594 41597 1
46913 41594 41743 1
46914 41596 41595 1
46915 41595 41744 1
46916 41595 41745 1
46917 41598 41597 1
46918 41597 41604 1
46919 41597 41746 1
46920 41599 41598 1
46921 41598 41601 1
46922 41598 41747 1
46923 41600 41599 1
46924 41599 41748 1
46925 41599 41749 1
46926 41600 41750 1
46927 41600 41751 1
46928 41602 41601 1
46929 41603 41602 1
46930 41602 41608 1
46931 41602 41752 1
46932 41604 41603 1
46933 41603 41605 1
46934 41603 41753 1
46935 41604 41754 1
46936 41604 41755 1
46937 41606 41605 1
46938 41605 41615 2
46939 41607 41606 1
46940 41606 41612 1
46941 41608 41607 1
46942 41607 41609 1
46943 41608 41620 1
46944 41608 41756 1
46945 41610 41609 1
46946 41609 41622 1
46947 41611 41610 1
46948 41610 41619 1
46949 41612 41611 1
46950 41611 41616 1
46951 41612 41613 1
46952 41614 41613 1
46953 41613 41757 1
46954 41613 41758 1
46955 41615 41614 1
46956 41614 41759 1
46957 41614 41760 1
46958 41615 41761 1
46959 41617 41616 1
46960 41618 41617 1
46961 41617 41653 1
46962 41619 41618 1
46963 41618 41637 1
46964 41619 41635 1
46965 41621 41620 1
46966 41620 41626 2
46967 41622 41621 1
46968 41621 41623 1
46969 41621 41762 1
46970 41622 41636 1
46971 41624 41623 2
46972 41623 41630 1
46973 41625 41624 1
46974 41624 41627 1
46975 41626 41625 1
46976 41625 41763 1
46977 41625 41764 1
46978 41626 41765 1
46979 41628 41627 1
46980 41627 41766 1
46981 41627 41767 1
46982 41629 41628 1
46983 41628 41768 1
46984 41628 41769 1
46985 41630 41629 2
46986 41629 41634 1
46987 41630 41631 1
46988 41632 41631 1
46989 41631 41770 1
46990 41631 41771 1
46991 41633 41632 1
46992 41632 41707 1
46993 41632 41772 1
46994 41634 41633 1
46995 41633 41773 1
46996 41633 41774 1
46997 41634 41775 1
46998 41634 41776 1
46999 41636 41635 1
47000 41635 41639 1
47001 41636 41777 1
47002 41638 41637 1
47003 41637 41643 1
47004 41639 41638 1
47005 41638 41640 1
47006 41641 41640 1
47007 41640 41778 1
47008 41642 41641 1
47009 41641 41647 1
47010 41643 41642 1
47011 41642 41644 1
47012 41643 41652 1
47013 41645 41644 1
47014 41644 41654 1
47015 41646 41645 1
47016 41645 41651 1
47017 41647 41646 1
47018 41646 41648 1
47019 41647 41779 1
47020 41649 41648 1
47021 41648 41664 1
47022 41650 41649 1
47023 41649 41661 1
47024 41651 41650 1
47025 41650 41658 1
47026 41651 41656 1
47027 41653 41652 1
47028 41652 41655 1
47029 41653 41780 1
47030 41655 41654 1
47031 41654 41657 1
47032 41655 41673 1
47033 41657 41656 1
47034 41656 41660 1
47035 41657 41675 1
47036 41659 41658 1
47037 41658 41691 1
47038 41660 41659 1
47039 41659 41686 1
47040 41660 41684 1
47041 41662 41661 1
47042 41663 41662 1
47043 41662 41668 1
47044 41662 41781 1
47045 41664 41663 1
47046 41663 41665 1
47047 41663 41782 1
47048 41664 41710 1
47049 41664 41783 1
47050 41666 41665 1
47051 41665 41784 1
47052 41665 41785 1
47053 41667 41666 1
47054 41666 41786 1
47055 41666 41787 1
47056 41668 41667 1
47057 41667 41672 1
47058 41667 41788 1
47059 41668 41669 1
47060 41668 41789 1
47061 41670 41669 1
47062 41669 41790 1
47063 41669 41791 1
47064 41671 41670 1
47065 41670 41792 1
47066 41670 41793 1
47067 41672 41671 1
47068 41671 41794 1
47069 41671 41795 1
47070 41672 41796 1
47071 41674 41673 1
47072 41673 41679 1
47073 41675 41674 1
47074 41674 41676 1
47075 41675 41685 1
47076 41677 41676 1
47077 41678 41677 1
47078 41677 41683 1
47079 41677 41797 1
47080 41679 41678 1
47081 41678 41680 1
47082 41678 41798 1
47083 41681 41680 1
47084 41680 41799 1
47085 41680 41800 1
47086 41682 41681 1
47087 41681 41801 1
47088 41681 41802 1
47089 41683 41682 1
47090 41682 41803 1
47091 41682 41804 1
47092 41683 41805 1
47093 41683 41806 1
47094 41685 41684 1
47095 41684 41688 1
47096 41685 41807 1
47097 41687 41686 1
47098 41686 41689 1
47099 41688 41687 1
47100 41687 41692 1
47101 41688 41808 1
47102 41690 41689 1
47103 41689 41694 1
47104 41691 41690 1
47105 41690 41695 1
47106 41691 41809 1
47107 41693 41692 1
47108 41694 41693 1
47109 41693 41704 1
47110 41694 41697 1
47111 41696 41695 1
47112 41695 41701 1
47113 41695 41810 1
47114 41697 41696 1
47115 41696 41698 1
47116 41696 41811 1
47117 41697 41702 1
47118 41699 41698 1
47119 41698 41705 1
47120 41698 41812 1
47121 41700 41699 1
47122 41699 41813 1
47123 41699 41814 1
47124 41701 41700 1
47125 41700 41815 1
47126 41700 41816 1
47127 41701 41817 1
47128 41701 41818 1
47129 41703 41702 1
47130 41702 41706 1
47131 41704 41703 1
47132 41703 41714 1
47133 41704 41711 1
47134 41705 41706 1
47135 41705 41729 1
47136 41706 41725 1
47137 41707 41708 1
47138 41707 41709 1
47139 41707 41819 1
47140 41708 41820 1
47141 41708 41821 1
47142 41708 41822 1
47143 41709 41823 1
47144 41709 41824 1
47145 41709 41825 1
47146 41710 41826 1
47147 41712 41711 1
47148 41711 41827 1
47149 41713 41712 1
47150 41712 41828 1
47151 41714 41713 1
47152 41713 41718 1
47153 41714 41715 1
47154 41716 41715 1
47155 41715 41725 1
47156 41717 41716 1
47157 41716 41722 1
47158 41718 41717 1
47159 41717 41719 1
47160 41718 41829 1
47161 41720 41719 1
47162 41719 41830 1
47163 41721 41720 1
47164 41720 41831 1
47165 41722 41721 1
47166 41721 41728 1
47167 41722 41723 1
47168 41724 41723 1
47169 41723 41726 1
47170 41725 41724 1
47171 41724 41730 1
47172 41727 41726 1
47173 41726 41731 1
47174 41728 41727 1
47175 41727 41832 1
47176 41728 41833 1
47177 41730 41729 1
47178 41729 41834 1
47179 41730 41732 1
47180 41732 41731 1
47181 41731 41736 1
47182 41732 41733 1
47183 41734 41733 1
47184 41733 41835 1
47185 41733 41836 1
47186 41735 41734 1
47187 41734 41837 1
47188 41734 41838 1
47189 41736 41735 1
47190 41735 41839 1
47191 41735 41840 1
47192 41736 41737 2
47193 41841 41842 1
47194 41841 41846 1
47195 41841 41988 1
47196 41841 41989 1
47197 41843 41842 1
47198 41842 41990 1
47199 41842 41991 1
47200 41844 41843 1
47201 41843 41850 1
47202 41843 41992 1
47203 41845 41844 1
47204 41844 41847 1
47205 41844 41993 1
47206 41846 41845 1
47207 41845 41994 1
47208 41845 41995 1
47209 41848 41847 1
47210 41847 41854 1
47211 41847 41996 1
47212 41849 41848 1
47213 41848 41851 1
47214 41848 41997 1
47215 41850 41849 1
47216 41849 41998 1
47217 41849 41999 1
47218 41850 42000 1
47219 41850 42001 1
47220 41852 41851 1
47221 41853 41852 1
47222 41852 41858 1
47223 41852 42002 1
47224 41854 41853 1
47225 41853 41855 1
47226 41853 42003 1
47227 41854 42004 1
47228 41854 42005 1
47229 41856 41855 1
47230 41855 41865 2
47231 41857 41856 1
47232 41856 41862 1
47233 41858 41857 1
47234 41857 41859 1
47235 41858 41870 1
47236 41858 42006 1
47237 41860 41859 1
47238 41859 41872 1
47239 41861 41860 1
47240 41860 41869 1
47241 41862 41861 1
47242 41861 41866 1
47243 41862 41863 1
47244 41864 41863 1
47245 41863 42007 1
47246 41863 42008 1
47247 41865 41864 1
47248 41864 42009 1
47249 41864 42010 1
47250 41865 42011 1
47251 41867 41866 1
47252 41868 41867 1
47253 41867 41903 1
47254 41869 41868 1
47255 41868 41887 1
47256 41869 41885 1
47257 41871 41870 1
47258 41870 41876 2
47259 41872 41871 1
47260 41871 41873 1
47261 41871 42012 1
47262 41872 41886 1
47263 41874 41873 2
47264 41873 41880 1
47265 41875 41874 1
47266 41874 41877 1
47267 41876 41875 1
47268 41875 42013 1
47269 41875 42014 1
47270 41876 42015 1
47271 41878 41877 1
47272 41877 42016 1
47273 41877 42017 1
47274 41879 41878 1
47275 41878 42018 1
47276 41878 42019 1
47277 41880 41879 2
47278 41879 41884 1
47279 41880 41881 1
47280 41882 41881 1
47281 41881 42020 1
47282 41881 42021 1
47283 41883 41882 1
47284 41882 41957 1
47285 41882 42022 1
47286 41884 41883 1
47287 41883 42023 1
47288 41883 42024 1
47289 41884 42025 1
47290 41884 42026 1
47291 41886 41885 1
47292 41885 41889 1
47293 41886 42027 1
47294 41888 41887 1
47295 41887 41893 1
47296 41889 41888 1
47297 41888 41890 1
47298 41891 41890 1
47299 41890 42028 1
47300 41892 41891 1
47301 41891 41897 1
47302 41893 41892 1
47303 41892 41894 1
47304 41893 41902 1
47305 41895 41894 1
47306 41894 41904 1
47307 41896 41895 1
47308 41895 41901 1
47309 41897 41896 1
47310 41896 41898 1
47311 41897 42029 1
47312 41899 41898 1
47313 41898 41914 1
47314 41900 41899 1
47315 41899 41911 1
47316 41901 41900 1
47317 41900 41908 1
47318 41901 41906 1
47319 41903 41902 1
47320 41902 41905 1
47321 41903 42030 1
47322 41905 41904 1
47323 41904 41907 1
47324 41905 41923 1
47325 41907 41906 1
47326 41906 41910 1
47327 41907 41925 1
47328 41909 41908 1
47329 41908 41941 1
47330 41910 41909 1
47331 41909 41936 1
47332 41910 41934 1
47333 41912 41911 1
47334 41913 41912 1
47335 41912 41918 1
47336 41912 42031 1
47337 41914 41913 1
47338 41913 41915 1
47339 41913 42032 1
47340 41914 41960 1
47341 41914 42033 1
47342 41916 41915 1
47343 41915 42034 1
47344 41915 42035 1
47345 41917 41916 1
47346 41916 42036 1
47347 41916 42037 1
47348 41918 41917 1
47349 41917 41922 1
47350 41917 42038 1
47351 41918 41919 1
47352 41918 42039 1
47353 41920 41919 1
47354 41919 42040 1
47355 41919 42041 1
47356 41921 41920 1
47357 41920 42042 1
47358 41920 42043 1
47359 41922 41921 1
47360 41921 42044 1
47361 41921 42045 1
47362 41922 42046 1
47363 41924 41923 1
47364 41923 41929 1
47365 41925 41924 1
47366 41924 41926 1
47367 41925 41935 1
47368 41927 41926 1
47369 41928 41927 1
47370 41927 41933 1
47371 41927 42047 1
47372 41929 41928 1
47373 41928 41930 1
47374 41928 42048 1
47375 41931 41930 1
47376 41930 42049 1
47377 41930 42050 1
47378 41932 41931 1
47379 41931 42051 1
47380 41931 42052 1
47381 41933 41932 1
47382 41932 42053 1
47383 41932 42054 1
47384 41933 42055 1
47385 41933 42056 1
47386 41935 41934 1
47387 41934 41938 1
47388 41935 42057 1
47389 41937 41936 1
47390 41936 41939 1
47391 41938 41937 1
47392 41937 41942 1
47393 41938 42058 1
47394 41940 41939 1
47395 41939 41944 1
47396 41941 41940 1
47397 41940 41945 1
47398 41941 42059 1
47399 41943 41942 1
47400 41944 41943 1
47401 41943 41954 1
47402 41944 41947 1
47403 41946 41945 1
47404 41945 41951 1
47405 41945 42060 1
47406 41947 41946 1
47407 41946 41948 1
47408 41946 42061 1
47409 41947 41952 1
47410 41949 41948 1
47411 41948 41955 1
47412 41948 42062 1
47413 41950 41949 1
47414 41949 42063 1
47415 41949 42064 1
47416 41951 41950 1
47417 41950 42065 1
47418 41950 42066 1
47419 41951 42067 1
47420 41951 42068 1
47421 41953 41952 1
47422 41952 41956 1
47423 41954 41953 1
47424 41953 41964 1
47425 41954 41961 1
47426 41955 41956 1
47427 41955 41979 1
47428 41956 41975 1
47429 41957 41958 1
47430 41957 41959 1
47431 41957 42069 1
47432 41958 42070 1
47433 41958 42071 1
47434 41958 42072 1
47435 41959 42073 1
47436 41959 42074 1
47437 41959 42075 1
47438 41960 42076 1
47439 41962 41961 1
47440 41961 42077 1
47441 41963 41962 1
47442 41962 42078 1
47443 41964 41963 1
47444 41963 41968 1
47445 41964 41965 1
47446 41966 41965 1
47447 41965 41975 1
47448 41967 41966 1
47449 41966 41972 1
47450 41968 41967 1
47451 41967 41969 1
47452 41968 42079 1
47453 41970 41969 1
47454 41969 42080 1
47455 41971 41970 1
47456 41970 42081 1
47457 41972 41971 1
47458 41971 41978 1
47459 41972 41973 1
47460 41974 41973 1
47461 41973 41976 1
47462 41975 41974 1
47463 41974 41980 1
47464 41977 41976 1
47465 41976 41981 1
47466 41978 41977 1
47467 41977 42082 1
47468 41978 42083 1
47469 41980 41979 1
47470 41979 42084 1
47471 41980 41982 1
47472 41982 41981 1
47473 41981 41986 1
47474 41982 41983 1
47475 41984 41983 1
47476 41983 42085 1
47477 41983 42086 1
47478 41985 41984 1
47479 41984 42087 1
47480 41984 42088 1
47481 41986 41985 1
47482 41985 42089 1
47483 41985 42090 1
47484 41986 41987 2
47485 42091 42092 1
47486 42091 42096 1
47487 42091 42238 1
47488 42091 42239 1
47489 42093 42092 1
47490 42092 42240 1
47491 42092 42241 1
47492 42094 42093 1
47493 42093 42100 1
47494 42093 42242 1
47495 42095 42094 1
47496 42094 42097 1
47497 42094 42243 1
47498 42096 42095 1
47499 42095 42244 1
47500 42095 42245 1
47501 42098 42097 1
47502 42097 42104 1
47503 42097 42246 1
47504 42099 42098 1
47505 42098 42101 1
47506 42098 42247 1
47507 42100 42099 1
47508 42099 42248 1
47509 42099 42249 1
47510 42100 42250 1
47511 42100 42251 1
47512 42102 42101 1
47513 42103 42102 1
47514 42102 42108 1
47515 42102 42252 1
47516 42104 42103 1
47517 42103 42105 1
47518 42103 42253 1
47519 42104 42254 1
47520 42104 42255 1
47521 42106 42105 1
47522 42105 42115 2
47523 42107 42106 1
47524 42106 42112 1
47525 42108 42107 1
47526 42107 42109 1
47527 42108 42120 1
47528 42108 42256 1
47529 42110 42109 1
47530 42109 42122 1
47531 42111 42110 1
47532 42110 42119 1
47533 42112 42111 1
47534 42111 42116 1
47535 42112 42113 1
47536 42114 42113 1
47537 42113 42257 1
47538 42113 42258 1
47539 42115 42114 1
47540 42114 42259 1
47541 42114 42260 1
47542 42115 42261 1
47543 42117 42116 1
47544 42118 42117 1
47545 42117 42153 1
47546 42119 42118 1
47547 42118 42137 1
47548 42119 42135 1
47549 42121 42120 1
47550 42120 42126 2
47551 42122 42121 1
47552 42121 42123 1
47553 42121 42262 1
47554 42122 42136 1
47555 42124 42123 2
47556 42123 42130 1
47557 42125 42124 1
47558 42124 42127 1
47559 42126 42125 1
47560 42125 42263 1
47561 42125 42264 1
47562 42126 42265 1
47563 42128 42127 1
47564 42127 42266 1
47565 42127 42267 1
47566 42129 42128 1
47567 42128 42268 1
47568 42128 42269 1
47569 42130 42129 2
47570 42129 42134 1
47571 42130 42131 1
47572 42132 42131 1
47573 42131 42270 1
47574 42131 42271 1
47575 42133 42132 1
47576 42132 42207 1
47577 42132 42272 1
47578 42134 42133 1
47579 42133 42273 1
47580 42133 42274 1
47581 42134 42275 1
47582 42134 42276 1
47583 42136 42135 1
47584 42135 42139 1
47585 42136 42277 1
47586 42138 42137 1
47587 42137 42143 1
47588 42139 42138 1
47589 42138 42140 1
47590 42141 42140 1
47591 42140 42278 1
47592 42142 42141 1
47593 42141 42147 1
47594 42143 42142 1
47595 42142 42144 1
47596 42143 42152 1
47597 42145 42144 1
47598 42144 42154 1
47599 42146 42145 1
47600 42145 42151 1
47601 42147 42146 1
47602 42146 42148 1
47603 42147 42279 1
47604 42149 42148 1
47605 42148 42164 1
47606 42150 42149 1
47607 42149 42161 1
47608 42151 42150 1
47609 42150 42158 1
47610 42151 42156 1
47611 42153 42152 1
47612 42152 42155 1
47613 42153 42280 1
47614 42155 42154 1
47615 42154 42157 1
47616 42155 42173 1
47617 42157 42156 1
47618 42156 42160 1
47619 42157 42175 1
47620 42159 42158 1
47621 42158 42191 1
47622 42160 42159 1
47623 42159 42186 1
47624 42160 42184 1
47625 42162 42161 1
47626 42163 42162 1
47627 42162 42168 1
47628 42162 42281 1
47629 42164 42163 1
47630 42163 42165 1
47631 42163 42282 1
47632 42164 42210 1
47633 42164 42283 1
47634 42166 42165 1
47635 42165 42284 1
47636 42165 42285 1
47637 42167 42166 1
47638 42166 42286 1
47639 42166 42287 1
47640 42168 42167 1
47641 42167 42172 1
47642 42167 42288 1
47643 42168 42169 1
47644 42168 42289 1
47645 42170 42169 1
47646 42169 42290 1
47647 42169 42291 1
47648 42171 42170 1
47649 42170 42292 1
47650 42170 42293 1
47651 42172 42171 1
47652 42171 42294 1
47653 42171 42295 1
47654 42172 42296 1
47655 42174 42173 1
47656 42173 42179 1
47657 42175 42174 1
47658 42174 42176 1
47659 42175 42185 1
47660 42177 42176 1
47661 42178 42177 1
47662 42177 42183 1
47663 42177 42297 1
47664 42179 42178 1
47665 42178 42180 1
47666 42178 42298 1
47667 42181 42180 1
47668 42180 42299 1
47669 42180 42300 1
47670 42182 42181 1
47671 42181 42301 1
47672 42181 42302 1
47673 42183 42182 1
47674 42182 42303 1
47675 42182 42304 1
47676 42183 42305 1
47677 42183 42306 1
47678 42185 42184 1
47679 42184 42188 1
47680 42185 42307 1
47681 42187 42186 1
47682 42186 42189 1
47683 42188 42187 1
47684 42187 42192 1
47685 42188 42308 1
47686 42190 42189 1
47687 42189 42194 1
47688 42191 42190 1
47689 42190 42195 1
47690 42191 42309 1
47691 42193 42192 1
47692 42194 42193 1
47693 42193 42204 1
47694 42194 42197 1
47695 42196 42195 1
47696 42195 42201 1
47697 42195 42310 1
47698 42197 42196 1
47699 42196 42198 1
47700 42196 42311 1
47701 42197 42202 1
47702 42199 42198 1
47703 42198 42205 1
47704 42198 42312 1
47705 42200 42199 1
47706 42199 42313 1
47707 42199 42314 1
47708 42201 42200 1
47709 42200 42315 1
47710 42200 42316 1
47711 42201 42317 1
47712 42201 42318 1
47713 42203 42202 1
47714 42202 42206 1
47715 42204 42203 1
47716 42203 42214 1
47717 42204 42211 1
47718 42205 42206 1
47719 42205 42229 1
47720 42206 42225 1
47721 42207 42208 1
47722 42207 42209 1
47723 42207 42319 1
47724 42208 42320 1
47725 42208 42321 1
47726 42208 42322 1
47727 42209 42323 1
47728 42209 42324 1
47729 42209 42325 1
47730 42210 42326 1
47731 42212 42211 1
47732 42211 42327 1
47733 42213 42212 1
47734 42212 42328 1
47735 42214 42213 1
47736 42213 42218 1
47737 42214 42215 1
47738 42216 42215 1
47739 42215 42225 1
47740 42217 42216 1
47741 42216 42222 1
47742 42218 42217 1
47743 42217 42219 1
47744 42218 42329 1
47745 42220 42219 1
47746 42219 42330 1
47747 42221 42220 1
47748 42220 42331 1
47749 42222 42221 1
47750 42221 42228 1
47751 42222 42223 1
47752 42224 42223 1
47753 42223 42226 1
47754 42225 42224 1
47755 42224 42230 1
47756 42227 42226 1
47757 42226 42231 1
47758 42228 42227 1
47759 42227 42332 1
47760 42228 42333 1
47761 42230 42229 1
47762 42229 42334 1
47763 42230 42232 1
47764 42232 42231 1
47765 42231 42236 1
47766 42232 42233 1
47767 42234 42233 1
47768 42233 42335 1
47769 42233 42336 1
47770 42235 42234 1
47771 42234 42337 1
47772 42234 42338 1
47773 42236 42235 1
47774 42235 42339 1
47775 42235 42340 1
47776 42236 42237 2
47777 42341 42342 1
47778 42341 42346 1
47779 42341 42488 1
47780 42341 42489 1
47781 42343 42342 1
47782 42342 42490 1
47783 42342 42491 1
47784 42344 42343 1
47785 42343 42350 1
47786 42343 42492 1
47787 42345 42344 1
47788 42344 42347 1
47789 42344 42493 1
47790 42346 42345 1
47791 42345 42494 1
47792 42345 42495 1
47793 42348 42347 1
47794 42347 42354 1
47795 42347 42496 1
47796 42349 42348 1
47797 42348 42351 1
47798 42348 42497 1
47799 42350 42349 1
47800 42349 42498 1
47801 42349 42499 1
47802 42350 42500 1
47803 42350 42501 1
47804 42352 42351 1
47805 42353 42352 1
47806 42352 42358 1
47807 42352 42502 1
47808 42354 42353 1
47809 42353 42355 1
47810 42353 42503 1
47811 42354 42504 1
47812 42354 42505 1
47813 42356 42355 1
47814 42355 42365 2
47815 42357 42356 1
47816 42356 42362 1
47817 42358 42357 1
47818 42357 42359 1
47819 42358 42370 1
47820 42358 42506 1
47821 42360 42359 1
47822 42359 42372 1
47823 42361 42360 1
47824 42360 42369 1
47825 42362 42361 1
47826 42361 42366 1
47827 42362 42363 1
47828 42364 42363 1
47829 42363 42507 1
47830 42363 42508 1
47831 42365 42364 1
47832 42364 42509 1
47833 42364 42510 1
47834 42365 42511 1
47835 42367 42366 1
47836 42368 42367 1
47837 42367 42403 1
47838 42369 42368 1
47839 42368 42387 1
47840 42369 42385 1
47841 42371 42370 1
47842 42370 42376 2
47843 42372 42371 1
47844 42371 42373 1
47845 42371 42512 1
47846 42372 42386 1
47847 42374 42373 2
47848 42373 42380 1
47849 42375 42374 1
47850 42374 42377 1
47851 42376 42375 1
47852 42375 42513 1
47853 42375 42514 1
47854 42376 42515 1
47855 42378 42377 1
47856 42377 42516 1
47857 42377 42517 1
47858 42379 42378 1
47859 42378 42518 1
47860 42378 42519 1
47861 42380 42379 2
47862 42379 42384 1
47863 42380 42381 1
47864 42382 42381 1
47865 42381 42520 1
47866 42381 42521 1
47867 42383 42382 1
47868 42382 42457 1
47869 42382 42522 1
47870 42384 42383 1
47871 42383 42523 1
47872 42383 42524 1
47873 42384 42525 1
47874 42384 42526 1
47875 42386 42385 1
47876 42385 42389 1
47877 42386 42527 1
47878 42388 42387 1
47879 42387 42393 1
47880 42389 42388 1
47881 42388 42390 1
47882 42391 42390 1
47883 42390 42528 1
47884 42392 42391 1
47885 42391 42397 1
47886 42393 42392 1
47887 42392 42394 1
47888 42393 42402 1
47889 42395 42394 1
47890 42394 42404 1
47891 42396 42395 1
47892 42395 42401 1
47893 42397 42396 1
47894 42396 42398 1
47895 42397 42529 1
47896 42399 42398 1
47897 42398 42414 1
47898 42400 42399 1
47899 42399 42411 1
47900 42401 42400 1
47901 42400 42408 1
47902 42401 42406 1
47903 42403 42402 1
47904 42402 42405 1
47905 42403 42530 1
47906 42405 42404 1
47907 42404 42407 1
47908 42405 42423 1
47909 42407 42406 1
47910 42406 42410 1
47911 42407 42425 1
47912 42409 42408 1
47913 42408 42441 1
47914 42410 42409 1
47915 42409 42436 1
47916 42410 42434 1
47917 42412 42411 1
47918 42413 42412 1
47919 42412 42418 1
47920 42412 42531 1
47921 42414 42413 1
47922 42413 42415 1
47923 42413 42532 1
47924 42414 42460 1
47925 42414 42533 1
47926 42416 42415 1
47927 42415 42534 1
47928 42415 42535 1
47929 42417 42416 1
47930 42416 42536 1
47931 42416 42537 1
47932 42418 42417 1
47933 42417 42422 1
47934 42417 42538 1
47935 42418 42419 1
47936 42418 42539 1
47937 42420 42419 1
47938 42419 42540 1
47939 42419 42541 1
47940 42421 42420 1
47941 42420 42542 1
47942 42420 42543 1
47943 42422 42421 1
47944 42421 42544 1
47945 42421 42545 1
47946 42422 42546 1
47947 42424 42423 1
47948 42423 42429 1
47949 42425 42424 1
47950 42424 42426 1
47951 42425 42435 1
47952 42427 42426 1
47953 42428 42427 1
47954 42427 42433 1
47955 42427 42547 1
47956 42429 42428 1
47957 42428 42430 1
47958 42428 42548 1
47959 42431 42430 1
47960 42430 42549 1
47961 42430 42550 1
47962 42432 42431 1
47963 42431 42551 1
47964 42431 42552 1
47965 42433 42432 1
47966 42432 42553 1
47967 42432 42554 1
47968 42433 42555 1
47969 42433 42556 1
47970 42435 42434 1
47971 42434 42438 1
47972 42435 42557 1
47973 42437 42436 1
47974 42436 42439 1
47975 42438 42437 1
47976 42437 42442 1
47977 42438 42558 1
47978 42440 42439 1
47979 42439 42444 1
47980 42441 42440 1
47981 42440 42445 1
47982 42441 42559 1
47983 42443 42442 1
47984 42444 42443 1
47985 42443 42454 1
47986 42444 42447 1
47987 42446 42445 1
47988 42445 42451 1
47989 42445 42560 1
47990 42447 42446 1
47991 42446 42448 1
47992 42446 42561 1
47993 42447 42452 1
47994 42449 42448 1
47995 42448 42455 1
47996 42448 42562 1
47997 42450 42449 1
47998 42449 42563 1
47999 42449 42564 1
48000 42451 42450 1
48001 42450 42565 1
48002 42450 42566 1
48003 42451 42567 1
48004 42451 42568 1
48005 42453 42452 1
48006 42452 42456 1
48007 42454 42453 1
48008 42453 42464 1
48009 42454 42461 1
48010 42455 42456 1
48011 42455 42479 1
48012 42456 42475 1
48013 42457 42458 1
48014 42457 42459 1
48015 42457 42569 1
48016 42458 42570 1
48017 42458 42571 1
48018 42458 42572 1
48019 42459 42573 1
48020 42459 42574 1
48021 42459 42575 1
48022 42460 42576 1
48023 42462 42461 1
48024 42461 42577 1
48025 42463 42462 1
48026 42462 42578 1
48027 42464 42463 1
48028 42463 42468 1
48029 42464 42465 1
48030 42466 42465 1
48031 42465 42475 1
48032 42467 42466 1
48033 42466 42472 1
48034 42468 42467 1
48035 42467 42469 1
48036 42468 42579 1
48037 42470 42469 1
48038 42469 42580 1
48039 42471 42470 1
48040 42470 42581 1
48041 42472 42471 1
48042 42471 42478 1
48043 42472 42473 1
48044 42474 42473 1
48045 42473 42476 1
48046 42475 42474 1
48047 42474 42480 1
48048 42477 42476 1
48049 42476 42481 1
48050 42478 42477 1
48051 42477 42582 1
48052 42478 42583 1
48053 42480 42479 1
48054 42479 42584 1
48055 42480 42482 1
48056 42482 42481 1
48057 42481 42486 1
48058 42482 42483 1
48059 42484 42483 1
48060 42483 42585 1
48061 42483 42586 1
48062 42485 42484 1
48063 42484 42587 1
48064 42484 42588 1
48065 42486 42485 1
48066 42485 42589 1
48067 42485 42590 1
48068 42486 42487 2
48069 42591 42592 1
48070 42591 42596 1
48071 42591 42738 1
48072 42591 42739 1
48073 42593 42592 1
48074 42592 42740 1
48075 42592 42741 1
48076 42594 42593 1
48077 42593 42600 1
48078 42593 42742 1
48079 42595 42594 1
48080 42594 42597 1
48081 42594 42743 1
48082 42596 42595 1
48083 42595 42744 1
48084 42595 42745 1
48085 42598 42597 1
48086 42597 42604 1
48087 42597 42746 1
48088 42599 42598 1
48089 42598 42601 1
48090 42598 42747 1
48091 42600 42599 1
48092 42599 42748 1
48093 42599 42749 1
48094 42600 42750 1
48095 42600 42751 1
48096 42602 42601 1
48097 42603 42602 1
48098 42602 42608 1
48099 42602 42752 1
48100 42604 42603 1
48101 42603 42605 1
48102 42603 42753 1
48103 42604 42754 1
48104 42604 42755 1
48105 42606 42605 1
48106 42605 42615 2
48107 42607 42606 1
48108 42606 42612 1
48109 42608 42607 1
48110 42607 42609 1
48111 42608 42620 1
48112 42608 42756 1
48113 42610 42609 1
48114 42609 42622 1
48115 42611 42610 1
48116 42610 42619 1
48117 42612 42611 1
48118 42611 42616 1
48119 42612 42613 1
48120 42614 42613 1
48121 42613 42757 1
48122 42613 42758 1
48123 42615 42614 1
48124 42614 42759 1
48125 42614 42760 1
48126 42615 42761 1
48127 42617 42616 1
48128 42618 42617 1
48129 42617 42653 1
48130 42619 42618 1
48131 42618 42637 1
48132 42619 42635 1
48133 42621 42620 1
48134 42620 42626 2
48135 42622 42621 1
48136 42621 42623 1
48137 42621 42762 1
48138 42622 42636 1
48139 42624 42623 2
48140 42623 42630 1
48141 42625 42624 1
48142 42624 42627 1
48143 42626 42625 1
48144 42625 42763 1
48145 42625 42764 1
48146 42626 42765 1
48147 42628 42627 1
48148 42627 42766 1
48149 42627 42767 1
48150 42629 42628 1
48151 42628 42768 1
48152 42628 42769 1
48153 42630 42629 2
48154 42629 42634 1
48155 42630 42631 1
48156 42632 42631 1
48157 42631 42770 1
48158 42631 42771 1
48159 42633 42632 1
48160 42632 42707 1
48161 42632 42772 1
48162 42634 42633 1
48163 42633 42773 1
48164 42633 42774 1
48165 42634 42775 1
48166 42634 42776 1
48167 42636 42635 1
48168 42635 42639 1
48169 42636 42777 1
48170 42638 42637 1
48171 42637 42643 1
48172 42639 42638 1
48173 42638 42640 1
48174 42641 42640 1
48175 42640 42778 1
48176 42642 42641 1
48177 42641 42647 1
48178 42643 42642 1
48179 42642 42644 1
48180 42643 42652 1
48181 42645 42644 1
48182 42644 42654 1
48183 42646 42645 1
48184 42645 42651 1
48185 42647 42646 1
48186 42646 42648 1
48187 42647 42779 1
48188 42649 42648 1
48189 42648 42664 1
48190 42650 42649 1
48191 42649 42661 1
48192 42651 42650 1
48193 42650 42658 1
48194 42651 42656 1
48195 42653 42652 1
48196 42652 42655 1
48197 42653 42780 1
48198 42655 42654 1
48199 42654 42657 1
48200 42655 42673 1
48201 42657 42656 1
48202 42656 42660 1
48203 42657 42675 1
48204 42659 42658 1
48205 42658 42691 1
48206 42660 42659 1
48207 42659 42686 1
48208 42660 42684 1
48209 42662 42661 1
48210 42663 42662 1
48211 42662 42668 1
48212 42662 42781 1
48213 42664 42663 1
48214 42663 42665 1
48215 42663 42782 1
48216 42664 42710 1
48217 42664 42783 1
48218 42666 42665 1
48219 42665 42784 1
48220 42665 42785 1
48221 42667 42666 1
48222 42666 42786 1
48223 42666 42787 1
48224 42668 42667 1
48225 42667 42672 1
48226 42667 42788 1
48227 42668 42669 1
48228 42668 42789 1
48229 42670 42669 1
48230 42669 42790 1
48231 42669 42791 1
48232 42671 42670 1
48233 42670 42792 1
48234 42670 42793 1
48235 42672 42671 1
48236 42671 42794 1
48237 42671 42795 1
48238 42672 42796 1
48239 42674 42673 1
48240 42673 42679 1
48241 42675 42674 1
48242 42674 42676 1
48243 42675 42685 1
48244 42677 42676 1
48245 42678 42677 1
48246 42677 42683 1
48247 42677 42797 1
48248 42679 42678 1
48249 42678 42680 1
48250 42678 42798 1
48251 42681 42680 1
48252 42680 42799 1
48253 42680 42800 1
48254 42682 42681 1
48255 42681 42801 1
48256 42681 42802 1
48257 42683 42682 1
48258 42682 42803 1
48259 42682 42804 1
48260 42683 42805 1
48261 42683 42806 1
48262 42685 42684 1
48263 42684 42688 1
48264 42685 42807 1
48265 42687 42686 1
48266 42686 42689 1
48267 42688 42687 1
48268 42687 42692 1
48269 42688 42808 1
48270 42690 42689 1
48271 42689 42694 1
48272 42691 42690 1
48273 42690 42695 1
48274 42691 42809 1
48275 42693 42692 1
48276 42694 42693 1
48277 42693 42704 1
48278 42694 42697 1
48279 42696 42695 1
48280 42695 42701 1
48281 42695 42810 1
48282 42697 42696 1
48283 42696 42698 1
48284 42696 42811 1
48285 42697 42702 1
48286 42699 42698 1
48287 42698 42705 1
48288 42698 42812 1
48289 42700 42699 1
48290 42699 42813 1
48291 42699 42814 1
48292 42701 42700 1
48293 42700 42815 1
48294 42700 42816 1
48295 42701 42817 1
48296 42701 42818 1
48297 42703 42702 1
48298 42702 42706 1
48299 42704 42703 1
48300 42703 42714 1
48301 42704 42711 1
48302 42705 42706 1
48303 42705 42729 1
48304 42706 42725 1
48305 42707 42708 1
48306 42707 42709 1
48307 42707 42819 1
48308 42708 42820 1
48309 42708 42821 1
48310 42708 42822 1
48311 42709 42823 1
48312 42709 42824 1
48313 42709 42825 1
48314 42710 42826 1
48315 42712 42711 1
48316 42711 42827 1
48317 42713 42712 1
48318 42712 42828 1
48319 42714 42713 1
48320 42713 42718 1
48321 42714 42715 1
48322 42716 42715 1
48323 42715 42725 1
48324 42717 42716 1
48325 42716 42722 1
48326 42718 42717 1
48327 42717 42719 1
48328 42718 42829 1
48329 42720 42719 1
48330 42719 42830 1
48331 42721 42720 1
48332 42720 42831 1
48333 42722 42721 1
48334 42721 42728 1
48335 42722 42723 1
48336 42724 42723 1
48337 42723 42726 1
48338 42725 42724 1
48339 42724 42730 1
48340 42727 42726 1
48341 42726 42731 1
48342 42728 42727 1
48343 42727 42832 1
48344 42728 42833 1
48345 42730 42729 1
48346 42729 42834 1
48347 42730 42732 1
48348 42732 42731 1
48349 42731 42736 1
48350 42732 42733 1
48351 42734 42733 1
48352 42733 42835 1
48353 42733 42836 1
48354 42735 42734 1
48355 42734 42837 1
48356 42734 42838 1
48357 42736 42735 1
48358 42735 42839 1
48359 42735 42840 1
48360 42736 42737 2
48361 42841 42842 un
48362 42841 42846 un
48363 42841 42896 1
48364 42843 42842 un
48365 42842 42898 1
48366 42844 42843 un
48367 42843 42850 1
48368 42845 42844 un
48369 42844 42847 1
48370 42846 42845 un
48371 42845 42897 1
48372 42846 42894 1
48373 42848 42847 1
48374 42847 42910 1
48375 42847 42911 1
48376 42849 42848 un
48377 42848 42854 un
48378 42850 42849 1
48379 42849 42851 un
48380 42850 42912 1
48381 42850 42913 1
48382 42852 42851 un
48383 42851 42899 1
48384 42853 42852 un
48385 42852 42900 1
48386 42854 42853 un
48387 42853 42858 un
48388 42854 42855 un
48389 42856 42855 un
48390 42855 42914 1
48391 42857 42856 un
48392 42856 42862 un
48393 42858 42857 un
48394 42857 42859 1
48395 42858 42901 1
48396 42860 42859 1
48397 42859 42866 1
48398 42861 42860 1
48399 42860 42863 1
48400 42862 42861 un
48401 42861 42870 un
48402 42862 42867 un
48403 42864 42863 1
48404 42863 42915 1
48405 42863 42916 1
48406 42865 42864 un
48407 42864 42903 1
48408 42864 42917 1
48409 42866 42865 1
48410 42865 42902 1
48411 42865 42918 1
48412 42866 42919 1
48413 42866 42920 1
48414 42868 42867 un
48415 42867 42905 1
48416 42869 42868 un
48417 42868 42874 1
48418 42870 42869 un
48419 42869 42871 1
48420 42870 42904 1
48421 42872 42871 1
48422 42871 42907 2
48423 42873 42872 un
48424 42872 42878 un
48425 42874 42873 1
48426 42873 42875 1
48427 42874 42906 2
48428 42876 42875 1
48429 42875 42921 1
48430 42875 42922 1
48431 42877 42876 1
48432 42876 42923 1
48433 42876 42924 1
48434 42878 42877 un
48435 42877 42882 un
48436 42878 42879 un
48437 42880 42879 un
48438 42881 42880 un
48439 42880 42889 un
48440 42882 42881 un
48441 42881 42886 1
48442 42882 42883 1
48443 42884 42883 1
48444 42883 42925 1
48445 42883 42926 1
48446 42885 42884 1
48447 42884 42927 1
48448 42884 42928 1
48449 42886 42885 1
48450 42885 42929 1
48451 42885 42930 1
48452 42886 42887 1
48453 42886 42931 1
48454 42888 42887 1
48455 42887 42932 1
48456 42887 42933 1
48457 42889 42888 un
48458 42888 42893 un
48459 42889 42890 un
48460 42891 42890 un
48461 42890 42934 1
48462 42892 42891 un
48463 42891 42935 1
48464 42893 42892 un
48465 42892 42909 1
48466 42893 42908 1
48467 42894 42895 1
48468 42894 42936 1
48469 42894 42937 1
48470 42895 42938 1
48471 42895 42939 1
48472 42895 42940 1
48473 42896 42941 1
48474 42896 42942 1
48475 42896 42943 1
48476 42897 42944 1
48477 42897 42945 1
48478 42897 42946 1
48479 42898 42947 1
48480 42898 42948 1
48481 42898 42949 1
48482 42899 42950 1
48483 42899 42951 1
48484 42899 42952 1
48485 42900 42953 1
48486 42900 42954 1
48487 42900 42955 1
48488 42901 42956 1
48489 42902 42957 1
48490 42902 42958 1
48491 42902 42959 1
48492 42903 42960 1
48493 42903 42961 1
48494 42903 42962 1
48495 42904 42963 1
48496 42905 42964 1
48497 42908 42965 1
48498 42908 42966 1
48499 42908 42967 1
48500 42909 42968 1
48501 42909 42969 1
48502 42909 42970 1
48503 42971 42972 un
48504 42971 42976 un
48505 42971 43026 1
48506 42973 42972 un
48507 42972 43028 1
48508 42974 42973 un
48509 42973 42980 1
48510 42975 42974 un
48511 42974 42977 1
48512 42976 42975 un
48513 42975 43027 1
48514 42976 43024 1
48515 42978 42977 1
48516 42977 43040 1
48517 42977 43041 1
48518 42979 42978 un
48519 42978 42984 un
48520 42980 42979 1
48521 42979 42981 un
48522 42980 43042 1
48523 42980 43043 1
48524 42982 42981 un
48525 42981 43029 1
48526 42983 42982 un
48527 42982 43030 1
48528 42984 42983 un
48529 42983 42988 un
48530 42984 42985 un
48531 42986 42985 un
48532 42985 43044 1
48533 42987 42986 un
48534 42986 42992 un
48535 42988 42987 un
48536 42987 42989 1
48537 42988 43031 1
48538 42990 42989 1
48539 42989 42996 1
48540 42991 42990 1
48541 42990 42993 1
48542 42992 42991 un
48543 42991 43000 un
48544 42992 42997 un
48545 42994 42993 1
48546 42993 43045 1
48547 42993 43046 1
48548 42995 42994 un
48549 42994 43033 1
48550 42994 43047 1
48551 42996 42995 1
48552 42995 43032 1
48553 42995 43048 1
48554 42996 43049 1
48555 42996 43050 1
48556 42998 42997 un
48557 42997 43035 1
48558 42999 42998 un
48559 42998 43004 1
48560 43000 42999 un
48561 42999 43001 1
48562 43000 43034 1
48563 43002 43001 1
48564 43001 43037 2
48565 43003 43002 un
48566 43002 43008 un
48567 43004 43003 1
48568 43003 43005 1
48569 43004 43036 2
48570 43006 43005 1
48571 43005 43051 1
48572 43005 43052 1
48573 43007 43006 1
48574 43006 43053 1
48575 43006 43054 1
48576 43008 43007 un
48577 43007 43012 un
48578 43008 43009 un
48579 43010 43009 un
48580 43011 43010 un
48581 43010 43019 un
48582 43012 43011 un
48583 43011 43016 1
48584 43012 43013 1
48585 43014 43013 1
48586 43013 43055 1
48587 43013 43056 1
48588 43015 43014 1
48589 43014 43057 1
48590 43014 43058 1
48591 43016 43015 1
48592 43015 43059 1
48593 43015 43060 1
48594 43016 43017 1
48595 43016 43061 1
48596 43018 43017 1
48597 43017 43062 1
48598 43017 43063 1
48599 43019 43018 un
48600 43018 43023 un
48601 43019 43020 un
48602 43021 43020 un
48603 43020 43064 1
48604 43022 43021 un
48605 43021 43065 1
48606 43023 43022 un
48607 43022 43039 1
48608 43023 43038 1
48609 43024 43025 1
48610 43024 43066 1
48611 43024 43067 1
48612 43025 43068 1
48613 43025 43069 1
48614 43025 43070 1
48615 43026 43071 1
48616 43026 43072 1
48617 43026 43073 1
48618 43027 43074 1
48619 43027 43075 1
48620 43027 43076 1
48621 43028 43077 1
48622 43028 43078 1
48623 43028 43079 1
48624 43029 43080 1
48625 43029 43081 1
48626 43029 43082 1
48627 43030 43083 1
48628 43030 43084 1
48629 43030 43085 1
48630 43031 43086 1
48631 43032 43087 1
48632 43032 43088 1
48633 43032 43089 1
48634 43033 43090 1
48635 43033 43091 1
48636 43033 43092 1
48637 43034 43093 1
48638 43035 43094 1
48639 43038 43095 1
48640 43038 43096 1
48641 43038 43097 1
48642 43039 43098 1
48643 43039 43099 1
48644 43039 43100 1
48645 43101 43102 un
48646 43101 43106 un
48647 43101 43156 1
48648 43103 43102 un
48649 43102 43158 1
48650 43104 43103 un
48651 43103 43110 1
48652 43105 43104 un
48653 43104 43107 1
48654 43106 43105 un
48655 43105 43157 1
48656 43106 43154 1
48657 43108 43107 1
48658 43107 43170 1
48659 43107 43171 1
48660 43109 43108 un
48661 43108 43114 un
48662 43110 43109 1
48663 43109 43111 un
48664 43110 43172 1
48665 43110 43173 1
48666 43112 43111 un
48667 43111 43159 1
48668 43113 43112 un
48669 43112 43160 1
48670 43114 43113 un
48671 43113 43118 un
48672 43114 43115 un
48673 43116 43115 un
48674 43115 43174 1
48675 43117 43116 un
48676 43116 43122 un
48677 43118 43117 un
48678 43117 43119 1
48679 43118 43161 1
48680 43120 43119 1
48681 43119 43126 1
48682 43121 43120 1
48683 43120 43123 1
48684 43122 43121 un
48685 43121 43130 un
48686 43122 43127 un
48687 43124 43123 1
48688 43123 43175 1
48689 43123 43176 1
48690 43125 43124 un
48691 43124 43163 1
48692 43124 43177 1
48693 43126 43125 1
48694 43125 43162 1
48695 43125 43178 1
48696 43126 43179 1
48697 43126 43180 1
48698 43128 43127 un
48699 43127 43165 1
48700 43129 43128 un
48701 43128 43134 1
48702 43130 43129 un
48703 43129 43131 1
48704 43130 43164 1
48705 43132 43131 1
48706 43131 43167 2
48707 43133 43132 un
48708 43132 43138 un
48709 43134 43133 1
48710 43133 43135 1
48711 43134 43166 2
48712 43136 43135 1
48713 43135 43181 1
48714 43135 43182 1
48715 43137 43136 1
48716 43136 43183 1
48717 43136 43184 1
48718 43138 43137 un
48719 43137 43142 un
48720 43138 43139 un
48721 43140 43139 un
48722 43141 43140 un
48723 43140 43149 un
48724 43142 43141 un
48725 43141 43146 1
48726 43142 43143 1
48727 43144 43143 1
48728 43143 43185 1
48729 43143 43186 1
48730 43145 43144 1
48731 43144 43187 1
48732 43144 43188 1
48733 43146 43145 1
48734 43145 43189 1
48735 43145 43190 1
48736 43146 43147 1
48737 43146 43191 1
48738 43148 43147 1
48739 43147 43192 1
48740 43147 43193 1
48741 43149 43148 un
48742 43148 43153 un
48743 43149 43150 un
48744 43151 43150 un
48745 43150 43194 1
48746 43152 43151 un
48747 43151 43195 1
48748 43153 43152 un
48749 43152 43169 1
48750 43153 43168 1
48751 43154 43155 1
48752 43154 43196 1
48753 43154 43197 1
48754 43155 43198 1
48755 43155 43199 1
48756 43155 43200 1
48757 43156 43201 1
48758 43156 43202 1
48759 43156 43203 1
48760 43157 43204 1
48761 43157 43205 1
48762 43157 43206 1
48763 43158 43207 1
48764 43158 43208 1
48765 43158 43209 1
48766 43159 43210 1
48767 43159 43211 1
48768 43159 43212 1
48769 43160 43213 1
48770 43160 43214 1
48771 43160 43215 1
48772 43161 43216 1
48773 43162 43217 1
48774 43162 43218 1
48775 43162 43219 1
48776 43163 43220 1
48777 43163 43221 1
48778 43163 43222 1
48779 43164 43223 1
48780 43165 43224 1
48781 43168 43225 1
48782 43168 43226 1
48783 43168 43227 1
48784 43169 43228 1
48785 43169 43229 1
48786 43169 43230 1
48787 43231 43232 un
48788 43231 43236 un
48789 43231 43286 1
48790 43233 43232 un
48791 43232 43288 1
48792 43234 43233 un
48793 43233 43240 1
48794 43235 43234 un
48795 43234 43237 1
48796 43236 43235 un
48797 43235 43287 1
48798 43236 43284 1
48799 43238 43237 1
48800 43237 43300 1
48801 43237 43301 1
48802 43239 43238 un
48803 43238 43244 un
48804 43240 43239 1
48805 43239 43241 un
48806 43240 43302 1
48807 43240 43303 1
48808 43242 43241 un
48809 43241 43289 1
48810 43243 43242 un
48811 43242 43290 1
48812 43244 43243 un
48813 43243 43248 un
48814 43244 43245 un
48815 43246 43245 un
48816 43245 43304 1
48817 43247 43246 un
48818 43246 43252 un
48819 43248 43247 un
48820 43247 43249 1
48821 43248 43291 1
48822 43250 43249 1
48823 43249 43256 1
48824 43251 43250 1
48825 43250 43253 1
48826 43252 43251 un
48827 43251 43260 un
48828 43252 43257 un
48829 43254 43253 1
48830 43253 43305 1
48831 43253 43306 1
48832 43255 43254 un
48833 43254 43293 1
48834 43254 43307 1
48835 43256 43255 1
48836 43255 43292 1
48837 43255 43308 1
48838 43256 43309 1
48839 43256 43310 1
48840 43258 43257 un
48841 43257 43295 1
48842 43259 43258 un
48843 43258 43264 1
48844 43260 43259 un
48845 43259 43261 1
48846 43260 43294 1
48847 43262 43261 1
48848 43261 43297 2
48849 43263 43262 un
48850 43262 43268 un
48851 43264 43263 1
48852 43263 43265 1
48853 43264 43296 2
48854 43266 43265 1
48855 43265 43311 1
48856 43265 43312 1
48857 43267 43266 1
48858 43266 43313 1
48859 43266 43314 1
48860 43268 43267 un
48861 43267 43272 un
48862 43268 43269 un
48863 43270 43269 un
48864 43271 43270 un
48865 43270 43279 un
48866 43272 43271 un
48867 43271 43276 1
48868 43272 43273 1
48869 43274 43273 1
48870 43273 43315 1
48871 43273 43316 1
48872 43275 43274 1
48873 43274 43317 1
48874 43274 43318 1
48875 43276 43275 1
48876 43275 43319 1
48877 43275 43320 1
48878 43276 43277 1
48879 43276 43321 1
48880 43278 43277 1
48881 43277 43322 1
48882 43277 43323 1
48883 43279 43278 un
48884 43278 43283 un
48885 43279 43280 un
48886 43281 43280 un
48887 43280 43324 1
48888 43282 43281 un
48889 43281 43325 1
48890 43283 43282 un
48891 43282 43299 1
48892 43283 43298 1
48893 43284 43285 1
48894 43284 43326 1
48895 43284 43327 1
48896 43285 43328 1
48897 43285 43329 1
48898 43285 43330 1
48899 43286 43331 1
48900 43286 43332 1
48901 43286 43333 1
48902 43287 43334 1
48903 43287 43335 1
48904 43287 43336 1
48905 43288 43337 1
48906 43288 43338 1
48907 43288 43339 1
48908 43289 43340 1
48909 43289 43341 1
48910 43289 43342 1
48911 43290 43343 1
48912 43290 43344 1
48913 43290 43345 1
48914 43291 43346 1
48915 43292 43347 1
48916 43292 43348 1
48917 43292 43349 1
48918 43293 43350 1
48919 43293 43351 1
48920 43293 43352 1
48921 43294 43353 1
48922 43295 43354 1
48923 43298 43355 1
48924 43298 43356 1
48925 43298 43357 1
48926 43299 43358 1
48927 43299 43359 1
48928 43299 43360 1
48929 43361 43362 un
48930 43361 43366 un
48931 43361 43416 1
48932 43363 43362 un
48933 43362 43418 1
48934 43364 43363 un
48935 43363 43370 1
48936 43365 43364 un
48937 43364 43367 1
48938 43366 43365 un
48939 43365 43417 1
48940 43366 43414 1
48941 43368 43367 1
48942 43367 43430 1
48943 43367 43431 1
48944 43369 43368 un
48945 43368 43374 un
48946 43370 43369 1
48947 43369 43371 un
48948 43370 43432 1
48949 43370 43433 1
48950 43372 43371 un
48951 43371 43419 1
48952 43373 43372 un
48953 43372 43420 1
48954 43374 43373 un
48955 43373 43378 un
48956 43374 43375 un
48957 43376 43375 un
48958 43375 43434 1
48959 43377 43376 un
48960 43376 43382 un
48961 43378 43377 un
48962 43377 43379 1
48963 43378 43421 1
48964 43380 43379 1
48965 43379 43386 1
48966 43381 43380 1
48967 43380 43383 1
48968 43382 43381 un
48969 43381 43390 un
48970 43382 43387 un
48971 43384 43383 1
48972 43383 43435 1
48973 43383 43436 1
48974 43385 43384 un
48975 43384 43423 1
48976 43384 43437 1
48977 43386 43385 1
48978 43385 43422 1
48979 43385 43438 1
48980 43386 43439 1
48981 43386 43440 1
48982 43388 43387 un
48983 43387 43425 1
48984 43389 43388 un
48985 43388 43394 1
48986 43390 43389 un
48987 43389 43391 1
48988 43390 43424 1
48989 43392 43391 1
48990 43391 43427 2
48991 43393 43392 un
48992 43392 43398 un
48993 43394 43393 1
48994 43393 43395 1
48995 43394 43426 2
48996 43396 43395 1
48997 43395 43441 1
48998 43395 43442 1
48999 43397 43396 1
49000 43396 43443 1
49001 43396 43444 1
49002 43398 43397 un
49003 43397 43402 un
49004 43398 43399 un
49005 43400 43399 un
49006 43401 43400 un
49007 43400 43409 un
49008 43402 43401 un
49009 43401 43406 1
49010 43402 43403 1
49011 43404 43403 1
49012 43403 43445 1
49013 43403 43446 1
49014 43405 43404 1
49015 43404 43447 1
49016 43404 43448 1
49017 43406 43405 1
49018 43405 43449 1
49019 43405 43450 1
49020 43406 43407 1
49021 43406 43451 1
49022 43408 43407 1
49023 43407 43452 1
49024 43407 43453 1
49025 43409 43408 un
49026 43408 43413 un
49027 43409 43410 un
49028 43411 43410 un
49029 43410 43454 1
49030 43412 43411 un
49031 43411 43455 1
49032 43413 43412 un
49033 43412 43429 1
49034 43413 43428 1
49035 43414 43415 1
49036 43414 43456 1
49037 43414 43457 1
49038 43415 43458 1
49039 43415 43459 1
49040 43415 43460 1
49041 43416 43461 1
49042 43416 43462 1
49043 43416 43463 1
49044 43417 43464 1
49045 43417 43465 1
49046 43417 43466 1
49047 43418 43467 1
49048 43418 43468 1
49049 43418 43469 1
49050 43419 43470 1
49051 43419 43471 1
49052 43419 43472 1
49053 43420 43473 1
49054 43420 43474 1
49055 43420 43475 1
49056 43421 43476 1
49057 43422 43477 1
49058 43422 43478 1
49059 43422 43479 1
49060 43423 43480 1
49061 43423 43481 1
49062 43423 43482 1
49063 43424 43483 1
49064 43425 43484 1
49065 43428 43485 1
49066 43428 43486 1
49067 43428 43487 1
49068 43429 43488 1
49069 43429 43489 1
49070 43429 43490 1
49071 43491 43492 un
49072 43491 43496 un
49073 43491 43546 1
49074 43493 43492 un
49075 43492 43548 1
49076 43494 43493 un
49077 43493 43500 1
49078 43495 43494 un
49079 43494 43497 1
49080 43496 43495 un
49081 43495 43547 1
49082 43496 43544 1
49083 43498 43497 1
49084 43497 43560 1
49085 43497 43561 1
49086 43499 43498 un
49087 43498 43504 un
49088 43500 43499 1
49089 43499 43501 un
49090 43500 43562 1
49091 43500 43563 1
49092 43502 43501 un
49093 43501 43549 1
49094 43503 43502 un
49095 43502 43550 1
49096 43504 43503 un
49097 43503 43508 un
49098 43504 43505 un
49099 43506 43505 un
49100 43505 43564 1
49101 43507 43506 un
49102 43506 43512 un
49103 43508 43507 un
49104 43507 43509 1
49105 43508 43551 1
49106 43510 43509 1
49107 43509 43516 1
49108 43511 43510 1
49109 43510 43513 1
49110 43512 43511 un
49111 43511 43520 un
49112 43512 43517 un
49113 43514 43513 1
49114 43513 43565 1
49115 43513 43566 1
49116 43515 43514 un
49117 43514 43553 1
49118 43514 43567 1
49119 43516 43515 1
49120 43515 43552 1
49121 43515 43568 1
49122 43516 43569 1
49123 43516 43570 1
49124 43518 43517 un
49125 43517 43555 1
49126 43519 43518 un
49127 43518 43524 1
49128 43520 43519 un
49129 43519 43521 1
49130 43520 43554 1
49131 43522 43521 1
49132 43521 43557 2
49133 43523 43522 un
49134 43522 43528 un
49135 43524 43523 1
49136 43523 43525 1
49137 43524 43556 2
49138 43526 43525 1
49139 43525 43571 1
49140 43525 43572 1
49141 43527 43526 1
49142 43526 43573 1
49143 43526 43574 1
49144 43528 43527 un
49145 43527 43532 un
49146 43528 43529 un
49147 43530 43529 un
49148 43531 43530 un
49149 43530 43539 un
49150 43532 43531 un
49151 43531 43536 1
49152 43532 43533 1
49153 43534 43533 1
49154 43533 43575 1
49155 43533 43576 1
49156 43535 43534 1
49157 43534 43577 1
49158 43534 43578 1
49159 43536 43535 1
49160 43535 43579 1
49161 43535 43580 1
49162 43536 43537 1
49163 43536 43581 1
49164 43538 43537 1
49165 43537 43582 1
49166 43537 43583 1
49167 43539 43538 un
49168 43538 43543 un
49169 43539 43540 un
49170 43541 43540 un
49171 43540 43584 1
49172 43542 43541 un
49173 43541 43585 1
49174 43543 43542 un
49175 43542 43559 1
49176 43543 43558 1
49177 43544 43545 1
49178 43544 43586 1
49179 43544 43587 1
49180 43545 43588 1
49181 43545 43589 1
49182 43545 43590 1
49183 43546 43591 1
49184 43546 43592 1
49185 43546 43593 1
49186 43547 43594 1
49187 43547 43595 1
49188 43547 43596 1
49189 43548 43597 1
49190 43548 43598 1
49191 43548 43599 1
49192 43549 43600 1
49193 43549 43601 1
49194 43549 43602 1
49195 43550 43603 1
49196 43550 43604 1
49197 43550 43605 1
49198 43551 43606 1
49199 43552 43607 1
49200 43552 43608 1
49201 43552 43609 1
49202 43553 43610 1
49203 43553 43611 1
49204 43553 43612 1
49205 43554 43613 1
49206 43555 43614 1
49207 43558 43615 1
49208 43558 43616 1
49209 43558 43617 1
49210 43559 43618 1
49211 43559 43619 1
49212 43559 43620 1
49213 43621 43622 un
49214 43621 43626 un
49215 43621 43676 1
49216 43623 43622 un
49217 43622 43678 1
49218 43624 43623 un
49219 43623 43630 1
49220 43625 43624 un
49221 43624 43627 1
49222 43626 43625 un
49223 43625 43677 1
49224 43626 43674 1
49225 43628 43627 1
49226 43627 43690 1
49227 43627 43691 1
49228 43629 43628 un
49229 43628 43634 un
49230 43630 43629 1
49231 43629 43631 un
49232 43630 43692 1
49233 43630 43693 1
49234 43632 43631 un
49235 43631 43679 1
49236 43633 43632 un
49237 43632 43680 1
49238 43634 43633 un
49239 43633 43638 un
49240 43634 43635 un
49241 43636 43635 un
49242 43635 43694 1
49243 43637 43636 un
49244 43636 43642 un
49245 43638 43637 un
49246 43637 43639 1
49247 43638 43681 1
49248 43640 43639 1
49249 43639 43646 1
49250 43641 43640 1
49251 43640 43643 1
49252 43642 43641 un
49253 43641 43650 un
49254 43642 43647 un
49255 43644 43643 1
49256 43643 43695 1
49257 43643 43696 1
49258 43645 43644 un
49259 43644 43683 1
49260 43644 43697 1
49261 43646 43645 1
49262 43645 43682 1
49263 43645 43698 1
49264 43646 43699 1
49265 43646 43700 1
49266 43648 43647 un
49267 43647 43685 1
49268 43649 43648 un
49269 43648 43654 1
49270 43650 43649 un
49271 43649 43651 1
49272 43650 43684 1
49273 43652 43651 1
49274 43651 43687 2
49275 43653 43652 un
49276 43652 43658 un
49277 43654 43653 1
49278 43653 43655 1
49279 43654 43686 2
49280 43656 43655 1
49281 43655 43701 1
49282 43655 43702 1
49283 43657 43656 1
49284 43656 43703 1
49285 43656 43704 1
49286 43658 43657 un
49287 43657 43662 un
49288 43658 43659 un
49289 43660 43659 un
49290 43661 43660 un
49291 43660 43669 un
49292 43662 43661 un
49293 43661 43666 1
49294 43662 43663 1
49295 43664 43663 1
49296 43663 43705 1
49297 43663 43706 1
49298 43665 43664 1
49299 43664 43707 1
49300 43664 43708 1
49301 43666 43665 1
49302 43665 43709 1
49303 43665 43710 1
49304 43666 43667 1
49305 43666 43711 1
49306 43668 43667 1
49307 43667 43712 1
49308 43667 43713 1
49309 43669 43668 un
49310 43668 43673 un
49311 43669 43670 un
49312 43671 43670 un
49313 43670 43714 1
49314 43672 43671 un
49315 43671 43715 1
49316 43673 43672 un
49317 43672 43689 1
49318 43673 43688 1
49319 43674 43675 1
49320 43674 43716 1
49321 43674 43717 1
49322 43675 43718 1
49323 43675 43719 1
49324 43675 43720 1
49325 43676 43721 1
49326 43676 43722 1
49327 43676 43723 1
49328 43677 43724 1
49329 43677 43725 1
49330 43677 43726 1
49331 43678 43727 1
49332 43678 43728 1
49333 43678 43729 1
49334 43679 43730 1
49335 43679 43731 1
49336 43679 43732 1
49337 43680 43733 1
49338 43680 43734 1
49339 43680 43735 1
49340 43681 43736 1
49341 43682 43737 1
49342 43682 43738 1
49343 43682 43739 1
49344 43683 43740 1
49345 43683 43741 1
49346 43683 43742 1
49347 43684 43743 1
49348 43685 43744 1
49349 43688 43745 1
49350 43688 43746 1
49351 43688 43747 1
49352 43689 43748 1
49353 43689 43749 1
49354 43689 43750 1
49355 43751 43752 un
49356 43751 43756 un
49357 43751 43806 1
49358 43753 43752 un
49359 43752 43808 1
49360 43754 43753 un
49361 43753 43760 1
49362 43755 43754 un
49363 43754 43757 1
49364 43756 43755 un
49365 43755 43807 1
49366 43756 43804 1
49367 43758 43757 1
49368 43757 43820 1
49369 43757 43821 1
49370 43759 43758 un
49371 43758 43764 un
49372 43760 43759 1
49373 43759 43761 un
49374 43760 43822 1
49375 43760 43823 1
49376 43762 43761 un
49377 43761 43809 1
49378 43763 43762 un
49379 43762 43810 1
49380 43764 43763 un
49381 43763 43768 un
49382 43764 43765 un
49383 43766 43765 un
49384 43765 43824 1
49385 43767 43766 un
49386 43766 43772 un
49387 43768 43767 un
49388 43767 43769 1
49389 43768 43811 1
49390 43770 43769 1
49391 43769 43776 1
49392 43771 43770 1
49393 43770 43773 1
49394 43772 43771 un
49395 43771 43780 un
49396 43772 43777 un
49397 43774 43773 1
49398 43773 43825 1
49399 43773 43826 1
49400 43775 43774 un
49401 43774 43813 1
49402 43774 43827 1
49403 43776 43775 1
49404 43775 43812 1
49405 43775 43828 1
49406 43776 43829 1
49407 43776 43830 1
49408 43778 43777 un
49409 43777 43815 1
49410 43779 43778 un
49411 43778 43784 1
49412 43780 43779 un
49413 43779 43781 1
49414 43780 43814 1
49415 43782 43781 1
49416 43781 43817 2
49417 43783 43782 un
49418 43782 43788 un
49419 43784 43783 1
49420 43783 43785 1
49421 43784 43816 2
49422 43786 43785 1
49423 43785 43831 1
49424 43785 43832 1
49425 43787 43786 1
49426 43786 43833 1
49427 43786 43834 1
49428 43788 43787 un
49429 43787 43792 un
49430 43788 43789 un
49431 43790 43789 un
49432 43791 43790 un
49433 43790 43799 un
49434 43792 43791 un
49435 43791 43796 1
49436 43792 43793 1
49437 43794 43793 1
49438 43793 43835 1
49439 43793 43836 1
49440 43795 43794 1
49441 43794 43837 1
49442 43794 43838 1
49443 43796 43795 1
49444 43795 43839 1
49445 43795 43840 1
49446 43796 43797 1
49447 43796 43841 1
49448 43798 43797 1
49449 43797 43842 1
49450 43797 43843 1
49451 43799 43798 un
49452 43798 43803 un
49453 43799 43800 un
49454 43801 43800 un
49455 43800 43844 1
49456 43802 43801 un
49457 43801 43845 1
49458 43803 43802 un
49459 43802 43819 1
49460 43803 43818 1
49461 43804 43805 1
49462 43804 43846 1
49463 43804 43847 1
49464 43805 43848 1
49465 43805 43849 1
49466 43805 43850 1
49467 43806 43851 1
49468 43806 43852 1
49469 43806 43853 1
49470 43807 43854 1
49471 43807 43855 1
49472 43807 43856 1
49473 43808 43857 1
49474 43808 43858 1
49475 43808 43859 1
49476 43809 43860 1
49477 43809 43861 1
49478 43809 43862 1
49479 43810 43863 1
49480 43810 43864 1
49481 43810 43865 1
49482 43811 43866 1
49483 43812 43867 1
49484 43812 43868 1
49485 43812 43869 1
49486 43813 43870 1
49487 43813 43871 1
49488 43813 43872 1
49489 43814 43873 1
49490 43815 43874 1
49491 43818 43875 1
49492 43818 43876 1
49493 43818 43877 1
49494 43819 43878 1
49495 43819 43879 1
49496 43819 43880 1
49497 43881 43882 un
49498 43881 43886 un
49499 43881 43936 1
49500 43883 43882 un
49501 43882 43938 1
49502 43884 43883 un
49503 43883 43890 1
49504 43885 43884 un
49505 43884 43887 1
49506 43886 43885 un
49507 43885 43937 1
49508 43886 43934 1
49509 43888 43887 1
49510 43887 43950 1
49511 43887 43951 1
49512 43889 43888 un
49513 43888 43894 un
49514 43890 43889 1
49515 43889 43891 un
49516 43890 43952 1
49517 43890 43953 1
49518 43892 43891 un
49519 43891 43939 1
49520 43893 43892 un
49521 43892 43940 1
49522 43894 43893 un
49523 43893 43898 un
49524 43894 43895 un
49525 43896 43895 un
49526 43895 43954 1
49527 43897 43896 un
49528 43896 43902 un
49529 43898 43897 un
49530 43897 43899 1
49531 43898 43941 1
49532 43900 43899 1
49533 43899 43906 1
49534 43901 43900 1
49535 43900 43903 1
49536 43902 43901 un
49537 43901 43910 un
49538 43902 43907 un
49539 43904 43903 1
49540 43903 43955 1
49541 43903 43956 1
49542 43905 43904 un
49543 43904 43943 1
49544 43904 43957 1
49545 43906 43905 1
49546 43905 43942 1
49547 43905 43958 1
49548 43906 43959 1
49549 43906 43960 1
49550 43908 43907 un
49551 43907 43945 1
49552 43909 43908 un
49553 43908 43914 1
49554 43910 43909 un
49555 43909 43911 1
49556 43910 43944 1
49557 43912 43911 1
49558 43911 43947 2
49559 43913 43912 un
49560 43912 43918 un
49561 43914 43913 1
49562 43913 43915 1
49563 43914 43946 2
49564 43916 43915 1
49565 43915 43961 1
49566 43915 43962 1
49567 43917 43916 1
49568 43916 43963 1
49569 43916 43964 1
49570 43918 43917 un
49571 43917 43922 un
49572 43918 43919 un
49573 43920 43919 un
49574 43921 43920 un
49575 43920 43929 un
49576 43922 43921 un
49577 43921 43926 1
49578 43922 43923 1
49579 43924 43923 1
49580 43923 43965 1
49581 43923 43966 1
49582 43925 43924 1
49583 43924 43967 1
49584 43924 43968 1
49585 43926 43925 1
49586 43925 43969 1
49587 43925 43970 1
49588 43926 43927 1
49589 43926 43971 1
49590 43928 43927 1
49591 43927 43972 1
49592 43927 43973 1
49593 43929 43928 un
49594 43928 43933 un
49595 43929 43930 un
49596 43931 43930 un
49597 43930 43974 1
49598 43932 43931 un
49599 43931 43975 1
49600 43933 43932 un
49601 43932 43949 1
49602 43933 43948 1
49603 43934 43935 1
49604 43934 43976 1
49605 43934 43977 1
49606 43935 43978 1
49607 43935 43979 1
49608 43935 43980 1
49609 43936 43981 1
49610 43936 43982 1
49611 43936 43983 1
49612 43937 43984 1
49613 43937 43985 1
49614 43937 43986 1
49615 43938 43987 1
49616 43938 43988 1
49617 43938 43989 1
49618 43939 43990 1
49619 43939 43991 1
49620 43939 43992 1
49621 43940 43993 1
49622 43940 43994 1
49623 43940 43995 1
49624 43941 43996 1
49625 43942 43997 1
49626 43942 43998 1
49627 43942 43999 1
49628 43943 44000 1
49629 43943 44001 1
49630 43943 44002 1
49631 43944 44003 1
49632 43945 44004 1
49633 43948 44005 1
49634 43948 44006 1
49635 43948 44007 1
49636 43949 44008 1
49637 43949 44009 1
49638 43949 44010 1
49639 44011 44012 un
49640 44011 44016 un
49641 44011 44066 1
49642 44013 44012 un
49643 44012 44068 1
49644 44014 44013 un
49645 44013 44020 1
49646 44015 44014 un
49647 44014 44017 1
49648 44016 44015 un
49649 44015 44067 1
49650 44016 44064 1
49651 44018 44017 1
49652 44017 44080 1
49653 44017 44081 1
49654 44019 44018 un
49655 44018 44024 un
49656 44020 44019 1
49657 44019 44021 un
49658 44020 44082 1
49659 44020 44083 1
49660 44022 44021 un
49661 44021 44069 1
49662 44023 44022 un
49663 44022 44070 1
49664 44024 44023 un
49665 44023 44028 un
49666 44024 44025 un
49667 44026 44025 un
49668 44025 44084 1
49669 44027 44026 un
49670 44026 44032 un
49671 44028 44027 un
49672 44027 44029 1
49673 44028 44071 1
49674 44030 44029 1
49675 44029 44036 1
49676 44031 44030 1
49677 44030 44033 1
49678 44032 44031 un
49679 44031 44040 un
49680 44032 44037 un
49681 44034 44033 1
49682 44033 44085 1
49683 44033 44086 1
49684 44035 44034 un
49685 44034 44073 1
49686 44034 44087 1
49687 44036 44035 1
49688 44035 44072 1
49689 44035 44088 1
49690 44036 44089 1
49691 44036 44090 1
49692 44038 44037 un
49693 44037 44075 1
49694 44039 44038 un
49695 44038 44044 1
49696 44040 44039 un
49697 44039 44041 1
49698 44040 44074 1
49699 44042 44041 1
49700 44041 44077 2
49701 44043 44042 un
49702 44042 44048 un
49703 44044 44043 1
49704 44043 44045 1
49705 44044 44076 2
49706 44046 44045 1
49707 44045 44091 1
49708 44045 44092 1
49709 44047 44046 1
49710 44046 44093 1
49711 44046 44094 1
49712 44048 44047 un
49713 44047 44052 un
49714 44048 44049 un
49715 44050 44049 un
49716 44051 44050 un
49717 44050 44059 un
49718 44052 44051 un
49719 44051 44056 1
49720 44052 44053 1
49721 44054 44053 1
49722 44053 44095 1
49723 44053 44096 1
49724 44055 44054 1
49725 44054 44097 1
49726 44054 44098 1
49727 44056 44055 1
49728 44055 44099 1
49729 44055 44100 1
49730 44056 44057 1
49731 44056 44101 1
49732 44058 44057 1
49733 44057 44102 1
49734 44057 44103 1
49735 44059 44058 un
49736 44058 44063 un
49737 44059 44060 un
49738 44061 44060 un
49739 44060 44104 1
49740 44062 44061 un
49741 44061 44105 1
49742 44063 44062 un
49743 44062 44079 1
49744 44063 44078 1
49745 44064 44065 1
49746 44064 44106 1
49747 44064 44107 1
49748 44065 44108 1
49749 44065 44109 1
49750 44065 44110 1
49751 44066 44111 1
49752 44066 44112 1
49753 44066 44113 1
49754 44067 44114 1
49755 44067 44115 1
49756 44067 44116 1
49757 44068 44117 1
49758 44068 44118 1
49759 44068 44119 1
49760 44069 44120 1
49761 44069 44121 1
49762 44069 44122 1
49763 44070 44123 1
49764 44070 44124 1
49765 44070 44125 1
49766 44071 44126 1
49767 44072 44127 1
49768 44072 44128 1
49769 44072 44129 1
49770 44073 44130 1
49771 44073 44131 1
49772 44073 44132 1
49773 44074 44133 1
49774 44075 44134 1
49775 44078 44135 1
49776 44078 44136 1
49777 44078 44137 1
49778 44079 44138 1
49779 44079 44139 1
49780 44079 44140 1
49781 44141 44142 un
49782 44141 44146 un
49783 44141 44196 1
49784 44143 44142 un
49785 44142 44198 1
49786 44144 44143 un
49787 44143 44150 1
49788 44145 44144 un
49789 44144 44147 1
49790 44146 44145 un
49791 44145 44197 1
49792 44146 44194 1
49793 44148 44147 1
49794 44147 44210 1
49795 44147 44211 1
49796 44149 44148 un
49797 44148 44154 un
49798 44150 44149 1
49799 44149 44151 un
49800 44150 44212 1
49801 44150 44213 1
49802 44152 44151 un
49803 44151 44199 1
49804 44153 44152 un
49805 44152 44200 1
49806 44154 44153 un
49807 44153 44158 un
49808 44154 44155 un
49809 44156 44155 un
49810 44155 44214 1
49811 44157 44156 un
49812 44156 44162 un
49813 44158 44157 un
49814 44157 44159 1
49815 44158 44201 1
49816 44160 44159 1
49817 44159 44166 1
49818 44161 44160 1
49819 44160 44163 1
49820 44162 44161 un
49821 44161 44170 un
49822 44162 44167 un
49823 44164 44163 1
49824 44163 44215 1
49825 44163 44216 1
49826 44165 44164 un
49827 44164 44203 1
49828 44164 44217 1
49829 44166 44165 1
49830 44165 44202 1
49831 44165 44218 1
49832 44166 44219 1
49833 44166 44220 1
49834 44168 44167 un
49835 44167 44205 1
49836 44169 44168 un
49837 44168 44174 1
49838 44170 44169 un
49839 44169 44171 1
49840 44170 44204 1
49841 44172 44171 1
49842 44171 44207 2
49843 44173 44172 un
49844 44172 44178 un
49845 44174 44173 1
49846 44173 44175 1
49847 44174 44206 2
49848 44176 44175 1
49849 44175 44221 1
49850 44175 44222 1
49851 44177 44176 1
49852 44176 44223 1
49853 44176 44224 1
49854 44178 44177 un
49855 44177 44182 un
49856 44178 44179 un
49857 44180 44179 un
49858 44181 44180 un
49859 44180 44189 un
49860 44182 44181 un
49861 44181 44186 1
49862 44182 44183 1
49863 44184 44183 1
49864 44183 44225 1
49865 44183 44226 1
49866 44185 44184 1
49867 44184 44227 1
49868 44184 44228 1
49869 44186 44185 1
49870 44185 44229 1
49871 44185 44230 1
49872 44186 44187 1
49873 44186 44231 1
49874 44188 44187 1
49875 44187 44232 1
49876 44187 44233 1
49877 44189 44188 un
49878 44188 44193 un
49879 44189 44190 un
49880 44191 44190 un
49881 44190 44234 1
49882 44192 44191 un
49883 44191 44235 1
49884 44193 44192 un
49885 44192 44209 1
49886 44193 44208 1
49887 44194 44195 1
49888 44194 44236 1
49889 44194 44237 1
49890 44195 44238 1
49891 44195 44239 1
49892 44195 44240 1
49893 44196 44241 1
49894 44196 44242 1
49895 44196 44243 1
49896 44197 44244 1
49897 44197 44245 1
49898 44197 44246 1
49899 44198 44247 1
49900 44198 44248 1
49901 44198 44249 1
49902 44199 44250 1
49903 44199 44251 1
49904 44199 44252 1
49905 44200 44253 1
49906 44200 44254 1
49907 44200 44255 1
49908 44201 44256 1
49909 44202 44257 1
49910 44202 44258 1
49911 44202 44259 1
49912 44203 44260 1
49913 44203 44261 1
49914 44203 44262 1
49915 44204 44263 1
49916 44205 44264 1
49917 44208 44265 1
49918 44208 44266 1
49919 44208 44267 1
49920 44209 44268 1
49921 44209 44269 1
49922 44209 44270 1
49923 44271 44272 un
49924 44271 44276 un
49925 44271 44326 1
49926 44273 44272 un
49927 44272 44328 1
49928 44274 44273 un
49929 44273 44280 1
49930 44275 44274 un
49931 44274 44277 1
49932 44276 44275 un
49933 44275 44327 1
49934 44276 44324 1
49935 44278 44277 1
49936 44277 44340 1
49937 44277 44341 1
49938 44279 44278 un
49939 44278 44284 un
49940 44280 44279 1
49941 44279 44281 un
49942 44280 44342 1
49943 44280 44343 1
49944 44282 44281 un
49945 44281 44329 1
49946 44283 44282 un
49947 44282 44330 1
49948 44284 44283 un
49949 44283 44288 un
49950 44284 44285 un
49951 44286 44285 un
49952 44285 44344 1
49953 44287 44286 un
49954 44286 44292 un
49955 44288 44287 un
49956 44287 44289 1
49957 44288 44331 1
49958 44290 44289 1
49959 44289 44296 1
49960 44291 44290 1
49961 44290 44293 1
49962 44292 44291 un
49963 44291 44300 un
49964 44292 44297 un
49965 44294 44293 1
49966 44293 44345 1
49967 44293 44346 1
49968 44295 44294 un
49969 44294 44333 1
49970 44294 44347 1
49971 44296 44295 1
49972 44295 44332 1
49973 44295 44348 1
49974 44296 44349 1
49975 44296 44350 1
49976 44298 44297 un
49977 44297 44335 1
49978 44299 44298 un
49979 44298 44304 1
49980 44300 44299 un
49981 44299 44301 1
49982 44300 44334 1
49983 44302 44301 1
49984 44301 44337 2
49985 44303 44302 un
49986 44302 44308 un
49987 44304 44303 1
49988 44303 44305 1
49989 44304 44336 2
49990 44306 44305 1
49991 44305 44351 1
49992 44305 44352 1
49993 44307 44306 1
49994 44306 44353 1
49995 44306 44354 1
49996 44308 44307 un
49997 44307 44312 un
49998 44308 44309 un
49999 44310 44309 un
50000 44311 44310 un
50001 44310 44319 un
50002 44312 44311 un
50003 44311 44316 1
50004 44312 44313 1
50005 44314 44313 1
50006 44313 44355 1
50007 44313 44356 1
50008 44315 44314 1
50009 44314 44357 1
50010 44314 44358 1
50011 44316 44315 1
50012 44315 44359 1
50013 44315 44360 1
50014 44316 44317 1
50015 44316 44361 1
50016 44318 44317 1
50017 44317 44362 1
50018 44317 44363 1
50019 44319 44318 un
50020 44318 44323 un
50021 44319 44320 un
50022 44321 44320 un
50023 44320 44364 1
50024 44322 44321 un
50025 44321 44365 1
50026 44323 44322 un
50027 44322 44339 1
50028 44323 44338 1
50029 44324 44325 1
50030 44324 44366 1
50031 44324 44367 1
50032 44325 44368 1
50033 44325 44369 1
50034 44325 44370 1
50035 44326 44371 1
50036 44326 44372 1
50037 44326 44373 1
50038 44327 44374 1
50039 44327 44375 1
50040 44327 44376 1
50041 44328 44377 1
50042 44328 44378 1
50043 44328 44379 1
50044 44329 44380 1
50045 44329 44381 1
50046 44329 44382 1
50047 44330 44383 1
50048 44330 44384 1
50049 44330 44385 1
50050 44331 44386 1
50051 44332 44387 1
50052 44332 44388 1
50053 44332 44389 1
50054 44333 44390 1
50055 44333 44391 1
50056 44333 44392 1
50057 44334 44393 1
50058 44335 44394 1
50059 44338 44395 1
50060 44338 44396 1
50061 44338 44397 1
50062 44339 44398 1
50063 44339 44399 1
50064 44339 44400 1
50065 44401 44402 un
50066 44401 44406 un
50067 44401 44456 1
50068 44403 44402 un
50069 44402 44458 1
50070 44404 44403 un
50071 44403 44410 1
50072 44405 44404 un
50073 44404 44407 1
50074 44406 44405 un
50075 44405 44457 1
50076 44406 44454 1
50077 44408 44407 1
50078 44407 44470 1
50079 44407 44471 1
50080 44409 44408 un
50081 44408 44414 un
50082 44410 44409 1
50083 44409 44411 un
50084 44410 44472 1
50085 44410 44473 1
50086 44412 44411 un
50087 44411 44459 1
50088 44413 44412 un
50089 44412 44460 1
50090 44414 44413 un
50091 44413 44418 un
50092 44414 44415 un
50093 44416 44415 un
50094 44415 44474 1
50095 44417 44416 un
50096 44416 44422 un
50097 44418 44417 un
50098 44417 44419 1
50099 44418 44461 1
50100 44420 44419 1
50101 44419 44426 1
50102 44421 44420 1
50103 44420 44423 1
50104 44422 44421 un
50105 44421 44430 un
50106 44422 44427 un
50107 44424 44423 1
50108 44423 44475 1
50109 44423 44476 1
50110 44425 44424 un
50111 44424 44463 1
50112 44424 44477 1
50113 44426 44425 1
50114 44425 44462 1
50115 44425 44478 1
50116 44426 44479 1
50117 44426 44480 1
50118 44428 44427 un
50119 44427 44465 1
50120 44429 44428 un
50121 44428 44434 1
50122 44430 44429 un
50123 44429 44431 1
50124 44430 44464 1
50125 44432 44431 1
50126 44431 44467 2
50127 44433 44432 un
50128 44432 44438 un
50129 44434 44433 1
50130 44433 44435 1
50131 44434 44466 2
50132 44436 44435 1
50133 44435 44481 1
50134 44435 44482 1
50135 44437 44436 1
50136 44436 44483 1
50137 44436 44484 1
50138 44438 44437 un
50139 44437 44442 un
50140 44438 44439 un
50141 44440 44439 un
50142 44441 44440 un
50143 44440 44449 un
50144 44442 44441 un
50145 44441 44446 1
50146 44442 44443 1
50147 44444 44443 1
50148 44443 44485 1
50149 44443 44486 1
50150 44445 44444 1
50151 44444 44487 1
50152 44444 44488 1
50153 44446 44445 1
50154 44445 44489 1
50155 44445 44490 1
50156 44446 44447 1
50157 44446 44491 1
50158 44448 44447 1
50159 44447 44492 1
50160 44447 44493 1
50161 44449 44448 un
50162 44448 44453 un
50163 44449 44450 un
50164 44451 44450 un
50165 44450 44494 1
50166 44452 44451 un
50167 44451 44495 1
50168 44453 44452 un
50169 44452 44469 1
50170 44453 44468 1
50171 44454 44455 1
50172 44454 44496 1
50173 44454 44497 1
50174 44455 44498 1
50175 44455 44499 1
50176 44455 44500 1
50177 44456 44501 1
50178 44456 44502 1
50179 44456 44503 1
50180 44457 44504 1
50181 44457 44505 1
50182 44457 44506 1
50183 44458 44507 1
50184 44458 44508 1
50185 44458 44509 1
50186 44459 44510 1
50187 44459 44511 1
50188 44459 44512 1
50189 44460 44513 1
50190 44460 44514 1
50191 44460 44515 1
50192 44461 44516 1
50193 44462 44517 1
50194 44462 44518 1
50195 44462 44519 1
50196 44463 44520 1
50197 44463 44521 1
50198 44463 44522 1
50199 44464 44523 1
50200 44465 44524 1
50201 44468 44525 1
50202 44468 44526 1
50203 44468 44527 1
50204 44469 44528 1
50205 44469 44529 1
50206 44469 44530 1
50207 44531 44532 un
50208 44531 44536 un
50209 44531 44586 1
50210 44533 44532 un
50211 44532 44588 1
50212 44534 44533 un
50213 44533 44540 1
50214 44535 44534 un
50215 44534 44537 1
50216 44536 44535 un
50217 44535 44587 1
50218 44536 44584 1
50219 44538 44537 1
50220 44537 44600 1
50221 44537 44601 1
50222 44539 44538 un
50223 44538 44544 un
50224 44540 44539 1
50225 44539 44541 un
50226 44540 44602 1
50227 44540 44603 1
50228 44542 44541 un
50229 44541 44589 1
50230 44543 44542 un
50231 44542 44590 1
50232 44544 44543 un
50233 44543 44548 un
50234 44544 44545 un
50235 44546 44545 un
50236 44545 44604 1
50237 44547 44546 un
50238 44546 44552 un
50239 44548 44547 un
50240 44547 44549 1
50241 44548 44591 1
50242 44550 44549 1
50243 44549 44556 1
50244 44551 44550 1
50245 44550 44553 1
50246 44552 44551 un
50247 44551 44560 un
50248 44552 44557 un
50249 44554 44553 1
50250 44553 44605 1
50251 44553 44606 1
50252 44555 44554 un
50253 44554 44593 1
50254 44554 44607 1
50255 44556 44555 1
50256 44555 44592 1
50257 44555 44608 1
50258 44556 44609 1
50259 44556 44610 1
50260 44558 44557 un
50261 44557 44595 1
50262 44559 44558 un
50263 44558 44564 1
50264 44560 44559 un
50265 44559 44561 1
50266 44560 44594 1
50267 44562 44561 1
50268 44561 44597 2
50269 44563 44562 un
50270 44562 44568 un
50271 44564 44563 1
50272 44563 44565 1
50273 44564 44596 2
50274 44566 44565 1
50275 44565 44611 1
50276 44565 44612 1
50277 44567 44566 1
50278 44566 44613 1
50279 44566 44614 1
50280 44568 44567 un
50281 44567 44572 un
50282 44568 44569 un
50283 44570 44569 un
50284 44571 44570 un
50285 44570 44579 un
50286 44572 44571 un
50287 44571 44576 1
50288 44572 44573 1
50289 44574 44573 1
50290 44573 44615 1
50291 44573 44616 1
50292 44575 44574 1
50293 44574 44617 1
50294 44574 44618 1
50295 44576 44575 1
50296 44575 44619 1
50297 44575 44620 1
50298 44576 44577 1
50299 44576 44621 1
50300 44578 44577 1
50301 44577 44622 1
50302 44577 44623 1
50303 44579 44578 un
50304 44578 44583 un
50305 44579 44580 un
50306 44581 44580 un
50307 44580 44624 1
50308 44582 44581 un
50309 44581 44625 1
50310 44583 44582 un
50311 44582 44599 1
50312 44583 44598 1
50313 44584 44585 1
50314 44584 44626 1
50315 44584 44627 1
50316 44585 44628 1
50317 44585 44629 1
50318 44585 44630 1
50319 44586 44631 1
50320 44586 44632 1
50321 44586 44633 1
50322 44587 44634 1
50323 44587 44635 1
50324 44587 44636 1
50325 44588 44637 1
50326 44588 44638 1
50327 44588 44639 1
50328 44589 44640 1
50329 44589 44641 1
50330 44589 44642 1
50331 44590 44643 1
50332 44590 44644 1
50333 44590 44645 1
50334 44591 44646 1
50335 44592 44647 1
50336 44592 44648 1
50337 44592 44649 1
50338 44593 44650 1
50339 44593 44651 1
50340 44593 44652 1
50341 44594 44653 1
50342 44595 44654 1
50343 44598 44655 1
50344 44598 44656 1
50345 44598 44657 1
50346 44599 44658 1
50347 44599 44659 1
50348 44599 44660 1
50349 44661 44662 un
50350 44661 44666 un
50351 44661 44716 1
50352 44663 44662 un
50353 44662 44718 1
50354 44664 44663 un
50355 44663 44670 1
50356 44665 44664 un
50357 44664 44667 1
50358 44666 44665 un
50359 44665 44717 1
50360 44666 44714 1
50361 44668 44667 1
50362 44667 44730 1
50363 44667 44731 1
50364 44669 44668 un
50365 44668 44674 un
50366 44670 44669 1
50367 44669 44671 un
50368 44670 44732 1
50369 44670 44733 1
50370 44672 44671 un
50371 44671 44719 1
50372 44673 44672 un
50373 44672 44720 1
50374 44674 44673 un
50375 44673 44678 un
50376 44674 44675 un
50377 44676 44675 un
50378 44675 44734 1
50379 44677 44676 un
50380 44676 44682 un
50381 44678 44677 un
50382 44677 44679 1
50383 44678 44721 1
50384 44680 44679 1
50385 44679 44686 1
50386 44681 44680 1
50387 44680 44683 1
50388 44682 44681 un
50389 44681 44690 un
50390 44682 44687 un
50391 44684 44683 1
50392 44683 44735 1
50393 44683 44736 1
50394 44685 44684 un
50395 44684 44723 1
50396 44684 44737 1
50397 44686 44685 1
50398 44685 44722 1
50399 44685 44738 1
50400 44686 44739 1
50401 44686 44740 1
50402 44688 44687 un
50403 44687 44725 1
50404 44689 44688 un
50405 44688 44694 1
50406 44690 44689 un
50407 44689 44691 1
50408 44690 44724 1
50409 44692 44691 1
50410 44691 44727 2
50411 44693 44692 un
50412 44692 44698 un
50413 44694 44693 1
50414 44693 44695 1
50415 44694 44726 2
50416 44696 44695 1
50417 44695 44741 1
50418 44695 44742 1
50419 44697 44696 1
50420 44696 44743 1
50421 44696 44744 1
50422 44698 44697 un
50423 44697 44702 un
50424 44698 44699 un
50425 44700 44699 un
50426 44701 44700 un
50427 44700 44709 un
50428 44702 44701 un
50429 44701 44706 1
50430 44702 44703 1
50431 44704 44703 1
50432 44703 44745 1
50433 44703 44746 1
50434 44705 44704 1
50435 44704 44747 1
50436 44704 44748 1
50437 44706 44705 1
50438 44705 44749 1
50439 44705 44750 1
50440 44706 44707 1
50441 44706 44751 1
50442 44708 44707 1
50443 44707 44752 1
50444 44707 44753 1
50445 44709 44708 un
50446 44708 44713 un
50447 44709 44710 un
50448 44711 44710 un
50449 44710 44754 1
50450 44712 44711 un
50451 44711 44755 1
50452 44713 44712 un
50453 44712 44729 1
50454 44713 44728 1
50455 44714 44715 1
50456 44714 44756 1
50457 44714 44757 1
50458 44715 44758 1
50459 44715 44759 1
50460 44715 44760 1
50461 44716 44761 1
50462 44716 44762 1
50463 44716 44763 1
50464 44717 44764 1
50465 44717 44765 1
50466 44717 44766 1
50467 44718 44767 1
50468 44718 44768 1
50469 44718 44769 1
50470 44719 44770 1
50471 44719 44771 1
50472 44719 44772 1
50473 44720 44773 1
50474 44720 44774 1
50475 44720 44775 1
50476 44721 44776 1
50477 44722 44777 1
50478 44722 44778 1
50479 44722 44779 1
50480 44723 44780 1
50481 44723 44781 1
50482 44723 44782 1
50483 44724 44783 1
50484 44725 44784 1
50485 44728 44785 1
50486 44728 44786 1
50487 44728 44787 1
50488 44729 44788 1
50489 44729 44789 1
50490 44729 44790 1
50491 44791 44792 un
50492 44791 44796 un
50493 44791 44846 1
50494 44793 44792 un
50495 44792 44848 1
50496 44794 44793 un
50497 44793 44800 1
50498 44795 44794 un
50499 44794 44797 1
50500 44796 44795 un
50501 44795 44847 1
50502 44796 44844 1
50503 44798 44797 1
50504 44797 44860 1
50505 44797 44861 1
50506 44799 44798 un
50507 44798 44804 un
50508 44800 44799 1
50509 44799 44801 un
50510 44800 44862 1
50511 44800 44863 1
50512 44802 44801 un
50513 44801 44849 1
50514 44803 44802 un
50515 44802 44850 1
50516 44804 44803 un
50517 44803 44808 un
50518 44804 44805 un
50519 44806 44805 un
50520 44805 44864 1
50521 44807 44806 un
50522 44806 44812 un
50523 44808 44807 un
50524 44807 44809 1
50525 44808 44851 1
50526 44810 44809 1
50527 44809 44816 1
50528 44811 44810 1
50529 44810 44813 1
50530 44812 44811 un
50531 44811 44820 un
50532 44812 44817 un
50533 44814 44813 1
50534 44813 44865 1
50535 44813 44866 1
50536 44815 44814 un
50537 44814 44853 1
50538 44814 44867 1
50539 44816 44815 1
50540 44815 44852 1
50541 44815 44868 1
50542 44816 44869 1
50543 44816 44870 1
50544 44818 44817 un
50545 44817 44855 1
50546 44819 44818 un
50547 44818 44824 1
50548 44820 44819 un
50549 44819 44821 1
50550 44820 44854 1
50551 44822 44821 1
50552 44821 44857 2
50553 44823 44822 un
50554 44822 44828 un
50555 44824 44823 1
50556 44823 44825 1
50557 44824 44856 2
50558 44826 44825 1
50559 44825 44871 1
50560 44825 44872 1
50561 44827 44826 1
50562 44826 44873 1
50563 44826 44874 1
50564 44828 44827 un
50565 44827 44832 un
50566 44828 44829 un
50567 44830 44829 un
50568 44831 44830 un
50569 44830 44839 un
50570 44832 44831 un
50571 44831 44836 1
50572 44832 44833 1
50573 44834 44833 1
50574 44833 44875 1
50575 44833 44876 1
50576 44835 44834 1
50577 44834 44877 1
50578 44834 44878 1
50579 44836 44835 1
50580 44835 44879 1
50581 44835 44880 1
50582 44836 44837 1
50583 44836 44881 1
50584 44838 44837 1
50585 44837 44882 1
50586 44837 44883 1
50587 44839 44838 un
50588 44838 44843 un
50589 44839 44840 un
50590 44841 44840 un
50591 44840 44884 1
50592 44842 44841 un
50593 44841 44885 1
50594 44843 44842 un
50595 44842 44859 1
50596 44843 44858 1
50597 44844 44845 1
50598 44844 44886 1
50599 44844 44887 1
50600 44845 44888 1
50601 44845 44889 1
50602 44845 44890 1
50603 44846 44891 1
50604 44846 44892 1
50605 44846 44893 1
50606 44847 44894 1
50607 44847 44895 1
50608 44847 44896 1
50609 44848 44897 1
50610 44848 44898 1
50611 44848 44899 1
50612 44849 44900 1
50613 44849 44901 1
50614 44849 44902 1
50615 44850 44903 1
50616 44850 44904 1
50617 44850 44905 1
50618 44851 44906 1
50619 44852 44907 1
50620 44852 44908 1
50621 44852 44909 1
50622 44853 44910 1
50623 44853 44911 1
50624 44853 44912 1
50625 44854 44913 1
50626 44855 44914 1
50627 44858 44915 1
50628 44858 44916 1
50629 44858 44917 1
50630 44859 44918 1
50631 44859 44919 1
50632 44859 44920 1
50633 44921 44922 un
50634 44921 44926 un
50635 44921 44976 1
50636 44923 44922 un
50637 44922 44978 1
50638 44924 44923 un
50639 44923 44930 1
50640 44925 44924 un
50641 44924 44927 1
50642 44926 44925 un
50643 44925 44977 1
50644 44926 44974 1
50645 44928 44927 1
50646 44927 44990 1
50647 44927 44991 1
50648 44929 44928 un
50649 44928 44934 un
50650 44930 44929 1
50651 44929 44931 un
50652 44930 44992 1
50653 44930 44993 1
50654 44932 44931 un
50655 44931 44979 1
50656 44933 44932 un
50657 44932 44980 1
50658 44934 44933 un
50659 44933 44938 un
50660 44934 44935 un
50661 44936 44935 un
50662 44935 44994 1
50663 44937 44936 un
50664 44936 44942 un
50665 44938 44937 un
50666 44937 44939 1
50667 44938 44981 1
50668 44940 44939 1
50669 44939 44946 1
50670 44941 44940 1
50671 44940 44943 1
50672 44942 44941 un
50673 44941 44950 un
50674 44942 44947 un
50675 44944 44943 1
50676 44943 44995 1
50677 44943 44996 1
50678 44945 44944 un
50679 44944 44983 1
50680 44944 44997 1
50681 44946 44945 1
50682 44945 44982 1
50683 44945 44998 1
50684 44946 44999 1
50685 44946 45000 1
50686 44948 44947 un
50687 44947 44985 1
50688 44949 44948 un
50689 44948 44954 1
50690 44950 44949 un
50691 44949 44951 1
50692 44950 44984 1
50693 44952 44951 1
50694 44951 44987 2
50695 44953 44952 un
50696 44952 44958 un
50697 44954 44953 1
50698 44953 44955 1
50699 44954 44986 2
50700 44956 44955 1
50701 44955 45001 1
50702 44955 45002 1
50703 44957 44956 1
50704 44956 45003 1
50705 44956 45004 1
50706 44958 44957 un
50707 44957 44962 un
50708 44958 44959 un
50709 44960 44959 un
50710 44961 44960 un
50711 44960 44969 un
50712 44962 44961 un
50713 44961 44966 1
50714 44962 44963 1
50715 44964 44963 1
50716 44963 45005 1
50717 44963 45006 1
50718 44965 44964 1
50719 44964 45007 1
50720 44964 45008 1
50721 44966 44965 1
50722 44965 45009 1
50723 44965 45010 1
50724 44966 44967 1
50725 44966 45011 1
50726 44968 44967 1
50727 44967 45012 1
50728 44967 45013 1
50729 44969 44968 un
50730 44968 44973 un
50731 44969 44970 un
50732 44971 44970 un
50733 44970 45014 1
50734 44972 44971 un
50735 44971 45015 1
50736 44973 44972 un
50737 44972 44989 1
50738 44973 44988 1
50739 44974 44975 1
50740 44974 45016 1
50741 44974 45017 1
50742 44975 45018 1
50743 44975 45019 1
50744 44975 45020 1
50745 44976 45021 1
50746 44976 45022 1
50747 44976 45023 1
50748 44977 45024 1
50749 44977 45025 1
50750 44977 45026 1
50751 44978 45027 1
50752 44978 45028 1
50753 44978 45029 1
50754 44979 45030 1
50755 44979 45031 1
50756 44979 45032 1
50757 44980 45033 1
50758 44980 45034 1
50759 44980 45035 1
50760 44981 45036 1
50761 44982 45037 1
50762 44982 45038 1
50763 44982 45039 1
50764 44983 45040 1
50765 44983 45041 1
50766 44983 45042 1
50767 44984 45043 1
50768 44985 45044 1
50769 44988 45045 1
50770 44988 45046 1
50771 44988 45047 1
50772 44989 45048 1
50773 44989 45049 1
50774 44989 45050 1
50775 45051 45052 un
50776 45051 45056 un
50777 45051 45106 1
50778 45053 45052 un
50779 45052 45108 1
50780 45054 45053 un
50781 45053 45060 1
50782 45055 45054 un
50783 45054 45057 1
50784 45056 45055 un
50785 45055 45107 1
50786 45056 45104 1
50787 45058 45057 1
50788 45057 45120 1
50789 45057 45121 1
50790 45059 45058 un
50791 45058 45064 un
50792 45060 45059 1
50793 45059 45061 un
50794 45060 45122 1
50795 45060 45123 1
50796 45062 45061 un
50797 45061 45109 1
50798 45063 45062 un
50799 45062 45110 1
50800 45064 45063 un
50801 45063 45068 un
50802 45064 45065 un
50803 45066 45065 un
50804 45065 45124 1
50805 45067 45066 un
50806 45066 45072 un
50807 45068 45067 un
50808 45067 45069 1
50809 45068 45111 1
50810 45070 45069 1
50811 45069 45076 1
50812 45071 45070 1
50813 45070 45073 1
50814 45072 45071 un
50815 45071 45080 un
50816 45072 45077 un
50817 45074 45073 1
50818 45073 45125 1
50819 45073 45126 1
50820 45075 45074 un
50821 45074 45113 1
50822 45074 45127 1
50823 45076 45075 1
50824 45075 45112 1
50825 45075 45128 1
50826 45076 45129 1
50827 45076 45130 1
50828 45078 45077 un
50829 45077 45115 1
50830 45079 45078 un
50831 45078 45084 1
50832 45080 45079 un
50833 45079 45081 1
50834 45080 45114 1
50835 45082 45081 1
50836 45081 45117 2
50837 45083 45082 un
50838 45082 45088 un
50839 45084 45083 1
50840 45083 45085 1
50841 45084 45116 2
50842 45086 45085 1
50843 45085 45131 1
50844 45085 45132 1
50845 45087 45086 1
50846 45086 45133 1
50847 45086 45134 1
50848 45088 45087 un
50849 45087 45092 un
50850 45088 45089 un
50851 45090 45089 un
50852 45091 45090 un
50853 45090 45099 un
50854 45092 45091 un
50855 45091 45096 1
50856 45092 45093 1
50857 45094 45093 1
50858 45093 45135 1
50859 45093 45136 1
50860 45095 45094 1
50861 45094 45137 1
50862 45094 45138 1
50863 45096 45095 1
50864 45095 45139 1
50865 45095 45140 1
50866 45096 45097 1
50867 45096 45141 1
50868 45098 45097 1
50869 45097 45142 1
50870 45097 45143 1
50871 45099 45098 un
50872 45098 45103 un
50873 45099 45100 un
50874 45101 45100 un
50875 45100 45144 1
50876 45102 45101 un
50877 45101 45145 1
50878 45103 45102 un
50879 45102 45119 1
50880 45103 45118 1
50881 45104 45105 1
50882 45104 45146 1
50883 45104 45147 1
50884 45105 45148 1
50885 45105 45149 1
50886 45105 45150 1
50887 45106 45151 1
50888 45106 45152 1
50889 45106 45153 1
50890 45107 45154 1
50891 45107 45155 1
50892 45107 45156 1
50893 45108 45157 1
50894 45108 45158 1
50895 45108 45159 1
50896 45109 45160 1
50897 45109 45161 1
50898 45109 45162 1
50899 45110 45163 1
50900 45110 45164 1
50901 45110 45165 1
50902 45111 45166 1
50903 45112 45167 1
50904 45112 45168 1
50905 45112 45169 1
50906 45113 45170 1
50907 45113 45171 1
50908 45113 45172 1
50909 45114 45173 1
50910 45115 45174 1
50911 45118 45175 1
50912 45118 45176 1
50913 45118 45177 1
50914 45119 45178 1
50915 45119 45179 1
50916 45119 45180 1
50917 45181 45182 un
50918 45181 45186 un
50919 45181 45236 1
50920 45183 45182 un
50921 45182 45238 1
50922 45184 45183 un
50923 45183 45190 1
50924 45185 45184 un
50925 45184 45187 1
50926 45186 45185 un
50927 45185 45237 1
50928 45186 45234 1
50929 45188 45187 1
50930 45187 45250 1
50931 45187 45251 1
50932 45189 45188 un
50933 45188 45194 un
50934 45190 45189 1
50935 45189 45191 un
50936 45190 45252 1
50937 45190 45253 1
50938 45192 45191 un
50939 45191 45239 1
50940 45193 45192 un
50941 45192 45240 1
50942 45194 45193 un
50943 45193 45198 un
50944 45194 45195 un
50945 45196 45195 un
50946 45195 45254 1
50947 45197 45196 un
50948 45196 45202 un
50949 45198 45197 un
50950 45197 45199 1
50951 45198 45241 1
50952 45200 45199 1
50953 45199 45206 1
50954 45201 45200 1
50955 45200 45203 1
50956 45202 45201 un
50957 45201 45210 un
50958 45202 45207 un
50959 45204 45203 1
50960 45203 45255 1
50961 45203 45256 1
50962 45205 45204 un
50963 45204 45243 1
50964 45204 45257 1
50965 45206 45205 1
50966 45205 45242 1
50967 45205 45258 1
50968 45206 45259 1
50969 45206 45260 1
50970 45208 45207 un
50971 45207 45245 1
50972 45209 45208 un
50973 45208 45214 1
50974 45210 45209 un
50975 45209 45211 1
50976 45210 45244 1
50977 45212 45211 1
50978 45211 45247 2
50979 45213 45212 un
50980 45212 45218 un
50981 45214 45213 1
50982 45213 45215 1
50983 45214 45246 2
50984 45216 45215 1
50985 45215 45261 1
50986 45215 45262 1
50987 45217 45216 1
50988 45216 45263 1
50989 45216 45264 1
50990 45218 45217 un
50991 45217 45222 un
50992 45218 45219 un
50993 45220 45219 un
50994 45221 45220 un
50995 45220 45229 un
50996 45222 45221 un
50997 45221 45226 1
50998 45222 45223 1
50999 45224 45223 1
51000 45223 45265 1
51001 45223 45266 1
51002 45225 45224 1
51003 45224 45267 1
51004 45224 45268 1
51005 45226 45225 1
51006 45225 45269 1
51007 45225 45270 1
51008 45226 45227 1
51009 45226 45271 1
51010 45228 45227 1
51011 45227 45272 1
51012 45227 45273 1
51013 45229 45228 un
51014 45228 45233 un
51015 45229 45230 un
51016 45231 45230 un
51017 45230 45274 1
51018 45232 45231 un
51019 45231 45275 1
51020 45233 45232 un
51021 45232 45249 1
51022 45233 45248 1
51023 45234 45235 1
51024 45234 45276 1
51025 45234 45277 1
51026 45235 45278 1
51027 45235 45279 1
51028 45235 45280 1
51029 45236 45281 1
51030 45236 45282 1
51031 45236 45283 1
51032 45237 45284 1
51033 45237 45285 1
51034 45237 45286 1
51035 45238 45287 1
51036 45238 45288 1
51037 45238 45289 1
51038 45239 45290 1
51039 45239 45291 1
51040 45239 45292 1
51041 45240 45293 1
51042 45240 45294 1
51043 45240 45295 1
51044 45241 45296 1
51045 45242 45297 1
51046 45242 45298 1
51047 45242 45299 1
51048 45243 45300 1
51049 45243 45301 1
51050 45243 45302 1
51051 45244 45303 1
51052 45245 45304 1
51053 45248 45305 1
51054 45248 45306 1
51055 45248 45307 1
51056 45249 45308 1
51057 45249 45309 1
51058 45249 45310 1
51059 45311 45312 un
51060 45311 45316 un
51061 45311 45366 1
51062 45313 45312 un
51063 45312 45368 1
51064 45314 45313 un
51065 45313 45320 1
51066 45315 45314 un
51067 45314 45317 1
51068 45316 45315 un
51069 45315 45367 1
51070 45316 45364 1
51071 45318 45317 1
51072 45317 45380 1
51073 45317 45381 1
51074 45319 45318 un
51075 45318 45324 un
51076 45320 45319 1
51077 45319 45321 un
51078 45320 45382 1
51079 45320 45383 1
51080 45322 45321 un
51081 45321 45369 1
51082 45323 45322 un
51083 45322 45370 1
51084 45324 45323 un
51085 45323 45328 un
51086 45324 45325 un
51087 45326 45325 un
51088 45325 45384 1
51089 45327 45326 un
51090 45326 45332 un
51091 45328 45327 un
51092 45327 45329 1
51093 45328 45371 1
51094 45330 45329 1
51095 45329 45336 1
51096 45331 45330 1
51097 45330 45333 1
51098 45332 45331 un
51099 45331 45340 un
51100 45332 45337 un
51101 45334 45333 1
51102 45333 45385 1
51103 45333 45386 1
51104 45335 45334 un
51105 45334 45373 1
51106 45334 45387 1
51107 45336 45335 1
51108 45335 45372 1
51109 45335 45388 1
51110 45336 45389 1
51111 45336 45390 1
51112 45338 45337 un
51113 45337 45375 1
51114 45339 45338 un
51115 45338 45344 1
51116 45340 45339 un
51117 45339 45341 1
51118 45340 45374 1
51119 45342 45341 1
51120 45341 45377 2
51121 45343 45342 un
51122 45342 45348 un
51123 45344 45343 1
51124 45343 45345 1
51125 45344 45376 2
51126 45346 45345 1
51127 45345 45391 1
51128 45345 45392 1
51129 45347 45346 1
51130 45346 45393 1
51131 45346 45394 1
51132 45348 45347 un
51133 45347 45352 un
51134 45348 45349 un
51135 45350 45349 un
51136 45351 45350 un
51137 45350 45359 un
51138 45352 45351 un
51139 45351 45356 1
51140 45352 45353 1
51141 45354 45353 1
51142 45353 45395 1
51143 45353 45396 1
51144 45355 45354 1
51145 45354 45397 1
51146 45354 45398 1
51147 45356 45355 1
51148 45355 45399 1
51149 45355 45400 1
51150 45356 45357 1
51151 45356 45401 1
51152 45358 45357 1
51153 45357 45402 1
51154 45357 45403 1
51155 45359 45358 un
51156 45358 45363 un
51157 45359 45360 un
51158 45361 45360 un
51159 45360 45404 1
51160 45362 45361 un
51161 45361 45405 1
51162 45363 45362 un
51163 45362 45379 1
51164 45363 45378 1
51165 45364 45365 1
51166 45364 45406 1
51167 45364 45407 1
51168 45365 45408 1
51169 45365 45409 1
51170 45365 45410 1
51171 45366 45411 1
51172 45366 45412 1
51173 45366 45413 1
51174 45367 45414 1
51175 45367 45415 1
51176 45367 45416 1
51177 45368 45417 1
51178 45368 45418 1
51179 45368 45419 1
51180 45369 45420 1
51181 45369 45421 1
51182 45369 45422 1
51183 45370 45423 1
51184 45370 45424 1
51185 45370 45425 1
51186 45371 45426 1
51187 45372 45427 1
51188 45372 45428 1
51189 45372 45429 1
51190 45373 45430 1
51191 45373 45431 1
51192 45373 45432 1
51193 45374 45433 1
51194 45375 45434 1
51195 45378 45435 1
51196 45378 45436 1
51197 45378 45437 1
51198 45379 45438 1
51199 45379 45439 1
51200 45379 45440 1
51201 45441 45442 am
51202 45446 45441 am
51203 45441 45493 1
51204 45442 45443 am
51205 45442 45501 1
51206 45443 45444 am
51207 45443 45449 1
51208 45444 45445 am
51209 45444 45447 1
51210 45445 45446 am
51211 45445 45502 1
51212 45446 45494 1
51213 45447 45448 am
51214 45447 45453 am
51215 45448 45449 1
51216 45448 45450 am
51217 45449 45503 1
51218 45449 45504 1
51219 45450 45451 am
51220 45450 45463 am
51221 45451 45452 am
51222 45451 45460 am
51223 45452 45453 am
51224 45452 45457 1
51225 45453 45454 1
51226 45454 45455 1
51227 45454 45505 1
51228 45454 45506 1
51229 45455 45456 1
51230 45455 45507 1
51231 45455 45508 1
51232 45456 45457 1
51233 45456 45509 1
51234 45456 45510 1
51235 45457 45458 am
51236 45458 45459 am
51237 45458 45467 1
51238 45459 45460 am
51239 45459 45464 1
51240 45460 45461 am
51241 45461 45462 am
51242 45461 45481 am
51243 45462 45463 am
51244 45462 45479 1
51245 45463 45495 1
51246 45464 45465 1
51247 45464 45511 1
51248 45464 45540 1
51249 45465 45466 am
51250 45465 45471 am
51251 45466 45467 1
51252 45466 45468 am
51253 45467 45512 1
51254 45467 45541 1
51255 45468 45469 am
51256 45468 45499 1
51257 45469 45470 am
51258 45469 45475 1
51259 45470 45471 am
51260 45470 45472 1
51261 45471 45476 am
51262 45472 45473 1
51263 45472 45478 am
51264 45473 45474 1
51265 45473 45513 1
51266 45473 45514 1
51267 45474 45475 1
51268 45474 45515 1
51269 45474 45516 1
51270 45475 45517 1
51271 45475 45518 1
51272 45476 45477 am
51273 45476 45519 1
51274 45477 45478 am
51275 45477 45498 1
51276 45478 45520 1
51277 45479 45480 1
51278 45479 45521 1
51279 45479 45522 1
51280 45480 45481 am
51281 45480 45485 am
51282 45481 45482 am
51283 45482 45483 am
51284 45482 45523 1
51285 45483 45484 am
51286 45483 45492 am
51287 45484 45485 am
51288 45484 45489 am
51289 45485 45486 am
51290 45486 45487 am
51291 45486 45524 1
51292 45487 45488 am
51293 45487 45496 1
51294 45488 45489 am
51295 45488 45525 1
51296 45489 45490 am
51297 45490 45491 am
51298 45490 45500 1
51299 45491 45492 am
51300 45491 45526 1
51301 45492 45527 1
51302 45493 45528 1
51303 45494 45529 1
51304 45494 45530 1
51305 45494 45531 1
51306 45495 45532 1
51307 45496 45497 1
51308 45496 45533 1
51309 45496 45542 1
51310 45497 45534 1
51311 45497 45535 1
51312 45497 45536 1
51313 45498 45537 1
51314 45499 45538 1
51315 45500 45539 1
51316 45543 45544 am
51317 45548 45543 am
51318 45543 45595 1
51319 45544 45545 am
51320 45544 45603 1
51321 45545 45546 am
51322 45545 45551 1
51323 45546 45547 am
51324 45546 45549 1
51325 45547 45548 am
51326 45547 45604 1
51327 45548 45596 1
51328 45549 45550 am
51329 45549 45555 am
51330 45550 45551 1
51331 45550 45552 am
51332 45551 45605 1
51333 45551 45606 1
51334 45552 45553 am
51335 45552 45565 am
51336 45553 45554 am
51337 45553 45562 am
51338 45554 45555 am
51339 45554 45559 1
51340 45555 45556 1
51341 45556 45557 1
51342 45556 45607 1
51343 45556 45608 1
51344 45557 45558 1
51345 45557 45609 1
51346 45557 45610 1
51347 45558 45559 1
51348 45558 45611 1
51349 45558 45612 1
51350 45559 45560 am
51351 45560 45561 am
51352 45560 45569 1
51353 45561 45562 am
51354 45561 45566 1
51355 45562 45563 am
51356 45563 45564 am
51357 45563 45583 am
51358 45564 45565 am
51359 45564 45581 1
51360 45565 45597 1
51361 45566 45567 1
51362 45566 45613 1
51363 45566 45642 1
51364 45567 45568 am
51365 45567 45573 am
51366 45568 45569 1
51367 45568 45570 am
51368 45569 45614 1
51369 45569 45643 1
51370 45570 45571 am
51371 45570 45601 1
51372 45571 45572 am
51373 45571 45577 1
51374 45572 45573 am
51375 45572 45574 1
51376 45573 45578 am
51377 45574 45575 1
51378 45574 45580 am
51379 45575 45576 1
51380 45575 45615 1
51381 45575 45616 1
51382 45576 45577 1
51383 45576 45617 1
51384 45576 45618 1
51385 45577 45619 1
51386 45577 45620 1
51387 45578 45579 am
51388 45578 45621 1
51389 45579 45580 am
51390 45579 45600 1
51391 45580 45622 1
51392 45581 45582 1
51393 45581 45623 1
51394 45581 45624 1
51395 45582 45583 am
51396 45582 45587 am
51397 45583 45584 am
51398 45584 45585 am
51399 45584 45625 1
51400 45585 45586 am
51401 45585 45594 am
51402 45586 45587 am
51403 45586 45591 am
51404 45587 45588 am
51405 45588 45589 am
51406 45588 45626 1
51407 45589 45590 am
51408 45589 45598 1
51409 45590 45591 am
51410 45590 45627 1
51411 45591 45592 am
51412 45592 45593 am
51413 45592 45602 1
51414 45593 45594 am
51415 45593 45628 1
51416 45594 45629 1
51417 45595 45630 1
51418 45596 45631 1
51419 45596 45632 1
51420 45596 45633 1
51421 45597 45634 1
51422 45598 45599 1
51423 45598 45635 1
51424 45598 45644 1
51425 45599 45636 1
51426 45599 45637 1
51427 45599 45638 1
51428 45600 45639 1
51429 45601 45640 1
51430 45602 45641 1
51431 45645 45646 am
51432 45650 45645 am
51433 45645 45697 1
51434 45646 45647 am
51435 45646 45705 1
51436 45647 45648 am
51437 45647 45653 1
51438 45648 45649 am
51439 45648 45651 1
51440 45649 45650 am
51441 45649 45706 1
51442 45650 45698 1
51443 45651 45652 am
51444 45651 45657 am
51445 45652 45653 1
51446 45652 45654 am
51447 45653 45707 1
51448 45653 45708 1
51449 45654 45655 am
51450 45654 45667 am
51451 45655 45656 am
51452 45655 45664 am
51453 45656 45657 am
51454 45656 45661 1
51455 45657 45658 1
51456 45658 45659 1
51457 45658 45709 1
51458 45658 45710 1
51459 45659 45660 1
51460 45659 45711 1
51461 45659 45712 1
51462 45660 45661 1
51463 45660 45713 1
51464 45660 45714 1
51465 45661 45662 am
51466 45662 45663 am
51467 45662 45671 1
51468 45663 45664 am
51469 45663 45668 1
51470 45664 45665 am
51471 45665 45666 am
51472 45665 45685 am
51473 45666 45667 am
51474 45666 45683 1
51475 45667 45699 1
51476 45668 45669 1
51477 45668 45715 1
51478 45668 45744 1
51479 45669 45670 am
51480 45669 45675 am
51481 45670 45671 1
51482 45670 45672 am
51483 45671 45716 1
51484 45671 45745 1
51485 45672 45673 am
51486 45672 45703 1
51487 45673 45674 am
51488 45673 45679 1
51489 45674 45675 am
51490 45674 45676 1
51491 45675 45680 am
51492 45676 45677 1
51493 45676 45682 am
51494 45677 45678 1
51495 45677 45717 1
51496 45677 45718 1
51497 45678 45679 1
51498 45678 45719 1
51499 45678 45720 1
51500 45679 45721 1
51501 45679 45722 1
51502 45680 45681 am
51503 45680 45723 1
51504 45681 45682 am
51505 45681 45702 1
51506 45682 45724 1
51507 45683 45684 1
51508 45683 45725 1
51509 45683 45726 1
51510 45684 45685 am
51511 45684 45689 am
51512 45685 45686 am
51513 45686 45687 am
51514 45686 45727 1
51515 45687 45688 am
51516 45687 45696 am
51517 45688 45689 am
51518 45688 45693 am
51519 45689 45690 am
51520 45690 45691 am
51521 45690 45728 1
51522 45691 45692 am
51523 45691 45700 1
51524 45692 45693 am
51525 45692 45729 1
51526 45693 45694 am
51527 45694 45695 am
51528 45694 45704 1
51529 45695 45696 am
51530 45695 45730 1
51531 45696 45731 1
51532 45697 45732 1
51533 45698 45733 1
51534 45698 45734 1
51535 45698 45735 1
51536 45699 45736 1
51537 45700 45701 1
51538 45700 45737 1
51539 45700 45746 1
51540 45701 45738 1
51541 45701 45739 1
51542 45701 45740 1
51543 45702 45741 1
51544 45703 45742 1
51545 45704 45743 1
51546 45747 45748 am
51547 45752 45747 am
51548 45747 45799 1
51549 45748 45749 am
51550 45748 45807 1
51551 45749 45750 am
51552 45749 45755 1
51553 45750 45751 am
51554 45750 45753 1
51555 45751 45752 am
51556 45751 45808 1
51557 45752 45800 1
51558 45753 45754 am
51559 45753 45759 am
51560 45754 45755 1
51561 45754 45756 am
51562 45755 45809 1
51563 45755 45810 1
51564 45756 45757 am
51565 45756 45769 am
51566 45757 45758 am
51567 45757 45766 am
51568 45758 45759 am
51569 45758 45763 1
51570 45759 45760 1
51571 45760 45761 1
51572 45760 45811 1
51573 45760 45812 1
51574 45761 45762 1
51575 45761 45813 1
51576 45761 45814 1
51577 45762 45763 1
51578 45762 45815 1
51579 45762 45816 1
51580 45763 45764 am
51581 45764 45765 am
51582 45764 45773 1
51583 45765 45766 am
51584 45765 45770 1
51585 45766 45767 am
51586 45767 45768 am
51587 45767 45787 am
51588 45768 45769 am
51589 45768 45785 1
51590 45769 45801 1
51591 45770 45771 1
51592 45770 45817 1
51593 45770 45846 1
51594 45771 45772 am
51595 45771 45777 am
51596 45772 45773 1
51597 45772 45774 am
51598 45773 45818 1
51599 45773 45847 1
51600 45774 45775 am
51601 45774 45805 1
51602 45775 45776 am
51603 45775 45781 1
51604 45776 45777 am
51605 45776 45778 1
51606 45777 45782 am
51607 45778 45779 1
51608 45778 45784 am
51609 45779 45780 1
51610 45779 45819 1
51611 45779 45820 1
51612 45780 45781 1
51613 45780 45821 1
51614 45780 45822 1
51615 45781 45823 1
51616 45781 45824 1
51617 45782 45783 am
51618 45782 45825 1
51619 45783 45784 am
51620 45783 45804 1
51621 45784 45826 1
51622 45785 45786 1
51623 45785 45827 1
51624 45785 45828 1
51625 45786 45787 am
51626 45786 45791 am
51627 45787 45788 am
51628 45788 45789 am
51629 45788 45829 1
51630 45789 45790 am
51631 45789 45798 am
51632 45790 45791 am
51633 45790 45795 am
51634 45791 45792 am
51635 45792 45793 am
51636 45792 45830 1
51637 45793 45794 am
51638 45793 45802 1
51639 45794 45795 am
51640 45794 45831 1
51641 45795 45796 am
51642 45796 45797 am
51643 45796 45806 1
51644 45797 45798 am
51645 45797 45832 1
51646 45798 45833 1
51647 45799 45834 1
51648 45800 45835 1
51649 45800 45836 1
51650 45800 45837 1
51651 45801 45838 1
51652 45802 45803 1
51653 45802 45839 1
51654 45802 45848 1
51655 45803 45840 1
51656 45803 45841 1
51657 45803 45842 1
51658 45804 45843 1
51659 45805 45844 1
51660 45806 45845 1
51661 45849 45850 am
51662 45854 45849 am
51663 45849 45901 1
51664 45850 45851 am
51665 45850 45909 1
51666 45851 45852 am
51667 45851 45857 1
51668 45852 45853 am
51669 45852 45855 1
51670 45853 45854 am
51671 45853 45910 1
51672 45854 45902 1
51673 45855 45856 am
51674 45855 45861 am
51675 45856 45857 1
51676 45856 45858 am
51677 45857 45911 1
51678 45857 45912 1
51679 45858 45859 am
51680 45858 45871 am
51681 45859 45860 am
51682 45859 45868 am
51683 45860 45861 am
51684 45860 45865 1
51685 45861 45862 1
51686 45862 45863 1
51687 45862 45913 1
51688 45862 45914 1
51689 45863 45864 1
51690 45863 45915 1
51691 45863 45916 1
51692 45864 45865 1
51693 45864 45917 1
51694 45864 45918 1
51695 45865 45866 am
51696 45866 45867 am
51697 45866 45875 1
51698 45867 45868 am
51699 45867 45872 1
51700 45868 45869 am
51701 45869 45870 am
51702 45869 45889 am
51703 45870 45871 am
51704 45870 45887 1
51705 45871 45903 1
51706 45872 45873 1
51707 45872 45919 1
51708 45872 45948 1
51709 45873 45874 am
51710 45873 45879 am
51711 45874 45875 1
51712 45874 45876 am
51713 45875 45920 1
51714 45875 45949 1
51715 45876 45877 am
51716 45876 45907 1
51717 45877 45878 am
51718 45877 45883 1
51719 45878 45879 am
51720 45878 45880 1
51721 45879 45884 am
51722 45880 45881 1
51723 45880 45886 am
51724 45881 45882 1
51725 45881 45921 1
51726 45881 45922 1
51727 45882 45883 1
51728 45882 45923 1
51729 45882 45924 1
51730 45883 45925 1
51731 45883 45926 1
51732 45884 45885 am
51733 45884 45927 1
51734 45885 45886 am
51735 45885 45906 1
51736 45886 45928 1
51737 45887 45888 1
51738 45887 45929 1
51739 45887 45930 1
51740 45888 45889 am
51741 45888 45893 am
51742 45889 45890 am
51743 45890 45891 am
51744 45890 45931 1
51745 45891 45892 am
51746 45891 45900 am
51747 45892 45893 am
51748 45892 45897 am
51749 45893 45894 am
51750 45894 45895 am
51751 45894 45932 1
51752 45895 45896 am
51753 45895 45904 1
51754 45896 45897 am
51755 45896 45933 1
51756 45897 45898 am
51757 45898 45899 am
51758 45898 45908 1
51759 45899 45900 am
51760 45899 45934 1
51761 45900 45935 1
51762 45901 45936 1
51763 45902 45937 1
51764 45902 45938 1
51765 45902 45939 1
51766 45903 45940 1
51767 45904 45905 1
51768 45904 45941 1
51769 45904 45950 1
51770 45905 45942 1
51771 45905 45943 1
51772 45905 45944 1
51773 45906 45945 1
51774 45907 45946 1
51775 45908 45947 1
51776 45951 45952 am
51777 45956 45951 am
51778 45951 46003 1
51779 45952 45953 am
51780 45952 46011 1
51781 45953 45954 am
51782 45953 45959 1
51783 45954 45955 am
51784 45954 45957 1
51785 45955 45956 am
51786 45955 46012 1
51787 45956 46004 1
51788 45957 45958 am
51789 45957 45963 am
51790 45958 45959 1
51791 45958 45960 am
51792 45959 46013 1
51793 45959 46014 1
51794 45960 45961 am
51795 45960 45973 am
51796 45961 45962 am
51797 45961 45970 am
51798 45962 45963 am
51799 45962 45967 1
51800 45963 45964 1
51801 45964 45965 1
51802 45964 46015 1
51803 45964 46016 1
51804 45965 45966 1
51805 45965 46017 1
51806 45965 46018 1
51807 45966 45967 1
51808 45966 46019 1
51809 45966 46020 1
51810 45967 45968 am
51811 45968 45969 am
51812 45968 45977 1
51813 45969 45970 am
51814 45969 45974 1
51815 45970 45971 am
51816 45971 45972 am
51817 45971 45991 am
51818 45972 45973 am
51819 45972 45989 1
51820 45973 46005 1
51821 45974 45975 1
51822 45974 46021 1
51823 45974 46050 1
51824 45975 45976 am
51825 45975 45981 am
51826 45976 45977 1
51827 45976 45978 am
51828 45977 46022 1
51829 45977 46051 1
51830 45978 45979 am
51831 45978 46009 1
51832 45979 45980 am
51833 45979 45985 1
51834 45980 45981 am
51835 45980 45982 1
51836 45981 45986 am
51837 45982 45983 1
51838 45982 45988 am
51839 45983 45984 1
51840 45983 46023 1
51841 45983 46024 1
51842 45984 45985 1
51843 45984 46025 1
51844 45984 46026 1
51845 45985 46027 1
51846 45985 46028 1
51847 45986 45987 am
51848 45986 46029 1
51849 45987 45988 am
51850 45987 46008 1
51851 45988 46030 1
51852 45989 45990 1
51853 45989 46031 1
51854 45989 46032 1
51855 45990 45991 am
51856 45990 45995 am
51857 45991 45992 am
51858 45992 45993 am
51859 45992 46033 1
51860 45993 45994 am
51861 45993 46002 am
51862 45994 45995 am
51863 45994 45999 am
51864 45995 45996 am
51865 45996 45997 am
51866 45996 46034 1
51867 45997 45998 am
51868 45997 46006 1
51869 45998 45999 am
51870 45998 46035 1
51871 45999 46000 am
51872 46000 46001 am
51873 46000 46010 1
51874 46001 46002 am
51875 46001 46036 1
51876 46002 46037 1
51877 46003 46038 1
51878 46004 46039 1
51879 46004 46040 1
51880 46004 46041 1
51881 46005 46042 1
51882 46006 46007 1
51883 46006 46043 1
51884 46006 46052 1
51885 46007 46044 1
51886 46007 46045 1
51887 46007 46046 1
51888 46008 46047 1
51889 46009 46048 1
51890 46010 46049 1
51891 46053 46054 am
51892 46058 46053 am
51893 46053 46105 1
51894 46054 46055 am
51895 46054 46113 1
51896 46055 46056 am
51897 46055 46061 1
51898 46056 46057 am
51899 46056 46059 1
51900 46057 46058 am
51901 46057 46114 1
51902 46058 46106 1
51903 46059 46060 am
51904 46059 46065 am
51905 46060 46061 1
51906 46060 46062 am
51907 46061 46115 1
51908 46061 46116 1
51909 46062 46063 am
51910 46062 46075 am
51911 46063 46064 am
51912 46063 46072 am
51913 46064 46065 am
51914 46064 46069 1
51915 46065 46066 1
51916 46066 46067 1
51917 46066 46117 1
51918 46066 46118 1
51919 46067 46068 1
51920 46067 46119 1
51921 46067 46120 1
51922 46068 46069 1
51923 46068 46121 1
51924 46068 46122 1
51925 46069 46070 am
51926 46070 46071 am
51927 46070 46079 1
51928 46071 46072 am
51929 46071 46076 1
51930 46072 46073 am
51931 46073 46074 am
51932 46073 46093 am
51933 46074 46075 am
51934 46074 46091 1
51935 46075 46107 1
51936 46076 46077 1
51937 46076 46123 1
51938 46076 46152 1
51939 46077 46078 am
51940 46077 46083 am
51941 46078 46079 1
51942 46078 46080 am
51943 46079 46124 1
51944 46079 46153 1
51945 46080 46081 am
51946 46080 46111 1
51947 46081 46082 am
51948 46081 46087 1
51949 46082 46083 am
51950 46082 46084 1
51951 46083 46088 am
51952 46084 46085 1
51953 46084 46090 am
51954 46085 46086 1
51955 46085 46125 1
51956 46085 46126 1
51957 46086 46087 1
51958 46086 46127 1
51959 46086 46128 1
51960 46087 46129 1
51961 46087 46130 1
51962 46088 46089 am
51963 46088 46131 1
51964 46089 46090 am
51965 46089 46110 1
51966 46090 46132 1
51967 46091 46092 1
51968 46091 46133 1
51969 46091 46134 1
51970 46092 46093 am
51971 46092 46097 am
51972 46093 46094 am
51973 46094 46095 am
51974 46094 46135 1
51975 46095 46096 am
51976 46095 46104 am
51977 46096 46097 am
51978 46096 46101 am
51979 46097 46098 am
51980 46098 46099 am
51981 46098 46136 1
51982 46099 46100 am
51983 46099 46108 1
51984 46100 46101 am
51985 46100 46137 1
51986 46101 46102 am
51987 46102 46103 am
51988 46102 46112 1
51989 46103 46104 am
51990 46103 46138 1
51991 46104 46139 1
51992 46105 46140 1
51993 46106 46141 1
51994 46106 46142 1
51995 46106 46143 1
51996 46107 46144 1
51997 46108 46109 1
51998 46108 46145 1
51999 46108 46154 1
52000 46109 46146 1
52001 46109 46147 1
52002 46109 46148 1
52003 46110 46149 1
52004 46111 46150 1
52005 46112 46151 1
52006 46155 46156 am
52007 46160 46155 am
52008 46155 46207 1
52009 46156 46157 am
52010 46156 46215 1
52011 46157 46158 am
52012 46157 46163 1
52013 46158 46159 am
52014 46158 46161 1
52015 46159 46160 am
52016 46159 46216 1
52017 46160 46208 1
52018 46161 46162 am
52019 46161 46167 am
52020 46162 46163 1
52021 46162 46164 am
52022 46163 46217 1
52023 46163 46218 1
52024 46164 46165 am
52025 46164 46177 am
52026 46165 46166 am
52027 46165 46174 am
52028 46166 46167 am
52029 46166 46171 1
52030 46167 46168 1
52031 46168 46169 1
52032 46168 46219 1
52033 46168 46220 1
52034 46169 46170 1
52035 46169 46221 1
52036 46169 46222 1
52037 46170 46171 1
52038 46170 46223 1
52039 46170 46224 1
52040 46171 46172 am
52041 46172 46173 am
52042 46172 46181 1
52043 46173 46174 am
52044 46173 46178 1
52045 46174 46175 am
52046 46175 46176 am
52047 46175 46195 am
52048 46176 46177 am
52049 46176 46193 1
52050 46177 46209 1
52051 46178 46179 1
52052 46178 46225 1
52053 46178 46254 1
52054 46179 46180 am
52055 46179 46185 am
52056 46180 46181 1
52057 46180 46182 am
52058 46181 46226 1
52059 46181 46255 1
52060 46182 46183 am
52061 46182 46213 1
52062 46183 46184 am
52063 46183 46189 1
52064 46184 46185 am
52065 46184 46186 1
52066 46185 46190 am
52067 46186 46187 1
52068 46186 46192 am
52069 46187 46188 1
52070 46187 46227 1
52071 46187 46228 1
52072 46188 46189 1
52073 46188 46229 1
52074 46188 46230 1
52075 46189 46231 1
52076 46189 46232 1
52077 46190 46191 am
52078 46190 46233 1
52079 46191 46192 am
52080 46191 46212 1
52081 46192 46234 1
52082 46193 46194 1
52083 46193 46235 1
52084 46193 46236 1
52085 46194 46195 am
52086 46194 46199 am
52087 46195 46196 am
52088 46196 46197 am
52089 46196 46237 1
52090 46197 46198 am
52091 46197 46206 am
52092 46198 46199 am
52093 46198 46203 am
52094 46199 46200 am
52095 46200 46201 am
52096 46200 46238 1
52097 46201 46202 am
52098 46201 46210 1
52099 46202 46203 am
52100 46202 46239 1
52101 46203 46204 am
52102 46204 46205 am
52103 46204 46214 1
52104 46205 46206 am
52105 46205 46240 1
52106 46206 46241 1
52107 46207 46242 1
52108 46208 46243 1
52109 46208 46244 1
52110 46208 46245 1
52111 46209 46246 1
52112 46210 46211 1
52113 46210 46247 1
52114 46210 46256 1
52115 46211 46248 1
52116 46211 46249 1
52117 46211 46250 1
52118 46212 46251 1
52119 46213 46252 1
52120 46214 46253 1
52121 46257 46258 am
52122 46262 46257 am
52123 46257 46309 1
52124 46258 46259 am
52125 46258 46317 1
52126 46259 46260 am
52127 46259 46265 1
52128 46260 46261 am
52129 46260 46263 1
52130 46261 46262 am
52131 46261 46318 1
52132 46262 46310 1
52133 46263 46264 am
52134 46263 46269 am
52135 46264 46265 1
52136 46264 46266 am
52137 46265 46319 1
52138 46265 46320 1
52139 46266 46267 am
52140 46266 46279 am
52141 46267 46268 am
52142 46267 46276 am
52143 46268 46269 am
52144 46268 46273 1
52145 46269 46270 1
52146 46270 46271 1
52147 46270 46321 1
52148 46270 46322 1
52149 46271 46272 1
52150 46271 46323 1
52151 46271 46324 1
52152 46272 46273 1
52153 46272 46325 1
52154 46272 46326 1
52155 46273 46274 am
52156 46274 46275 am
52157 46274 46283 1
52158 46275 46276 am
52159 46275 46280 1
52160 46276 46277 am
52161 46277 46278 am
52162 46277 46297 am
52163 46278 46279 am
52164 46278 46295 1
52165 46279 46311 1
52166 46280 46281 1
52167 46280 46327 1
52168 46280 46356 1
52169 46281 46282 am
52170 46281 46287 am
52171 46282 46283 1
52172 46282 46284 am
52173 46283 46328 1
52174 46283 46357 1
52175 46284 46285 am
52176 46284 46315 1
52177 46285 46286 am
52178 46285 46291 1
52179 46286 46287 am
52180 46286 46288 1
52181 46287 46292 am
52182 46288 46289 1
52183 46288 46294 am
52184 46289 46290 1
52185 46289 46329 1
52186 46289 46330 1
52187 46290 46291 1
52188 46290 46331 1
52189 46290 46332 1
52190 46291 46333 1
52191 46291 46334 1
52192 46292 46293 am
52193 46292 46335 1
52194 46293 46294 am
52195 46293 46314 1
52196 46294 46336 1
52197 46295 46296 1
52198 46295 46337 1
52199 46295 46338 1
52200 46296 46297 am
52201 46296 46301 am
52202 46297 46298 am
52203 46298 46299 am
52204 46298 46339 1
52205 46299 46300 am
52206 46299 46308 am
52207 46300 46301 am
52208 46300 46305 am
52209 46301 46302 am
52210 46302 46303 am
52211 46302 46340 1
52212 46303 46304 am
52213 46303 46312 1
52214 46304 46305 am
52215 46304 46341 1
52216 46305 46306 am
52217 46306 46307 am
52218 46306 46316 1
52219 46307 46308 am
52220 46307 46342 1
52221 46308 46343 1
52222 46309 46344 1
52223 46310 46345 1
52224 46310 46346 1
52225 46310 46347 1
52226 46311 46348 1
52227 46312 46313 1
52228 46312 46349 1
52229 46312 46358 1
52230 46313 46350 1
52231 46313 46351 1
52232 46313 46352 1
52233 46314 46353 1
52234 46315 46354 1
52235 46316 46355 1
52236 46359 46360 am
52237 46364 46359 am
52238 46359 46411 1
52239 46360 46361 am
52240 46360 46419 1
52241 46361 46362 am
52242 46361 46367 1
52243 46362 46363 am
52244 46362 46365 1
52245 46363 46364 am
52246 46363 46420 1
52247 46364 46412 1
52248 46365 46366 am
52249 46365 46371 am
52250 46366 46367 1
52251 46366 46368 am
52252 46367 46421 1
52253 46367 46422 1
52254 46368 46369 am
52255 46368 46381 am
52256 46369 46370 am
52257 46369 46378 am
52258 46370 46371 am
52259 46370 46375 1
52260 46371 46372 1
52261 46372 46373 1
52262 46372 46423 1
52263 46372 46424 1
52264 46373 46374 1
52265 46373 46425 1
52266 46373 46426 1
52267 46374 46375 1
52268 46374 46427 1
52269 46374 46428 1
52270 46375 46376 am
52271 46376 46377 am
52272 46376 46385 1
52273 46377 46378 am
52274 46377 46382 1
52275 46378 46379 am
52276 46379 46380 am
52277 46379 46399 am
52278 46380 46381 am
52279 46380 46397 1
52280 46381 46413 1
52281 46382 46383 1
52282 46382 46429 1
52283 46382 46458 1
52284 46383 46384 am
52285 46383 46389 am
52286 46384 46385 1
52287 46384 46386 am
52288 46385 46430 1
52289 46385 46459 1
52290 46386 46387 am
52291 46386 46417 1
52292 46387 46388 am
52293 46387 46393 1
52294 46388 46389 am
52295 46388 46390 1
52296 46389 46394 am
52297 46390 46391 1
52298 46390 46396 am
52299 46391 46392 1
52300 46391 46431 1
52301 46391 46432 1
52302 46392 46393 1
52303 46392 46433 1
52304 46392 46434 1
52305 46393 46435 1
52306 46393 46436 1
52307 46394 46395 am
52308 46394 46437 1
52309 46395 46396 am
52310 46395 46416 1
52311 46396 46438 1
52312 46397 46398 1
52313 46397 46439 1
52314 46397 46440 1
52315 46398 46399 am
52316 46398 46403 am
52317 46399 46400 am
52318 46400 46401 am
52319 46400 46441 1
52320 46401 46402 am
52321 46401 46410 am
52322 46402 46403 am
52323 46402 46407 am
52324 46403 46404 am
52325 46404 46405 am
52326 46404 46442 1
52327 46405 46406 am
52328 46405 46414 1
52329 46406 46407 am
52330 46406 46443 1
52331 46407 46408 am
52332 46408 46409 am
52333 46408 46418 1
52334 46409 46410 am
52335 46409 46444 1
52336 46410 46445 1
52337 46411 46446 1
52338 46412 46447 1
52339 46412 46448 1
52340 46412 46449 1
52341 46413 46450 1
52342 46414 46415 1
52343 46414 46451 1
52344 46414 46460 1
52345 46415 46452 1
52346 46415 46453 1
52347 46415 46454 1
52348 46416 46455 1
52349 46417 46456 1
52350 46418 46457 1
52351 46461 46462 am
52352 46466 46461 am
52353 46461 46513 1
52354 46462 46463 am
52355 46462 46521 1
52356 46463 46464 am
52357 46463 46469 1
52358 46464 46465 am
52359 46464 46467 1
52360 46465 46466 am
52361 46465 46522 1
52362 46466 46514 1
52363 46467 46468 am
52364 46467 46473 am
52365 46468 46469 1
52366 46468 46470 am
52367 46469 46523 1
52368 46469 46524 1
52369 46470 46471 am
52370 46470 46483 am
52371 46471 46472 am
52372 46471 46480 am
52373 46472 46473 am
52374 46472 46477 1
52375 46473 46474 1
52376 46474 46475 1
52377 46474 46525 1
52378 46474 46526 1
52379 46475 46476 1
52380 46475 46527 1
52381 46475 46528 1
52382 46476 46477 1
52383 46476 46529 1
52384 46476 46530 1
52385 46477 46478 am
52386 46478 46479 am
52387 46478 46487 1
52388 46479 46480 am
52389 46479 46484 1
52390 46480 46481 am
52391 46481 46482 am
52392 46481 46501 am
52393 46482 46483 am
52394 46482 46499 1
52395 46483 46515 1
52396 46484 46485 1
52397 46484 46531 1
52398 46484 46560 1
52399 46485 46486 am
52400 46485 46491 am
52401 46486 46487 1
52402 46486 46488 am
52403 46487 46532 1
52404 46487 46561 1
52405 46488 46489 am
52406 46488 46519 1
52407 46489 46490 am
52408 46489 46495 1
52409 46490 46491 am
52410 46490 46492 1
52411 46491 46496 am
52412 46492 46493 1
52413 46492 46498 am
52414 46493 46494 1
52415 46493 46533 1
52416 46493 46534 1
52417 46494 46495 1
52418 46494 46535 1
52419 46494 46536 1
52420 46495 46537 1
52421 46495 46538 1
52422 46496 46497 am
52423 46496 46539 1
52424 46497 46498 am
52425 46497 46518 1
52426 46498 46540 1
52427 46499 46500 1
52428 46499 46541 1
52429 46499 46542 1
52430 46500 46501 am
52431 46500 46505 am
52432 46501 46502 am
52433 46502 46503 am
52434 46502 46543 1
52435 46503 46504 am
52436 46503 46512 am
52437 46504 46505 am
52438 46504 46509 am
52439 46505 46506 am
52440 46506 46507 am
52441 46506 46544 1
52442 46507 46508 am
52443 46507 46516 1
52444 46508 46509 am
52445 46508 46545 1
52446 46509 46510 am
52447 46510 46511 am
52448 46510 46520 1
52449 46511 46512 am
52450 46511 46546 1
52451 46512 46547 1
52452 46513 46548 1
52453 46514 46549 1
52454 46514 46550 1
52455 46514 46551 1
52456 46515 46552 1
52457 46516 46517 1
52458 46516 46553 1
52459 46516 46562 1
52460 46517 46554 1
52461 46517 46555 1
52462 46517 46556 1
52463 46518 46557 1
52464 46519 46558 1
52465 46520 46559 1
52466 46563 46564 am
52467 46568 46563 am
52468 46563 46615 1
52469 46564 46565 am
52470 46564 46623 1
52471 46565 46566 am
52472 46565 46571 1
52473 46566 46567 am
52474 46566 46569 1
52475 46567 46568 am
52476 46567 46624 1
52477 46568 46616 1
52478 46569 46570 am
52479 46569 46575 am
52480 46570 46571 1
52481 46570 46572 am
52482 46571 46625 1
52483 46571 46626 1
52484 46572 46573 am
52485 46572 46585 am
52486 46573 46574 am
52487 46573 46582 am
52488 46574 46575 am
52489 46574 46579 1
52490 46575 46576 1
52491 46576 46577 1
52492 46576 46627 1
52493 46576 46628 1
52494 46577 46578 1
52495 46577 46629 1
52496 46577 46630 1
52497 46578 46579 1
52498 46578 46631 1
52499 46578 46632 1
52500 46579 46580 am
52501 46580 46581 am
52502 46580 46589 1
52503 46581 46582 am
52504 46581 46586 1
52505 46582 46583 am
52506 46583 46584 am
52507 46583 46603 am
52508 46584 46585 am
52509 46584 46601 1
52510 46585 46617 1
52511 46586 46587 1
52512 46586 46633 1
52513 46586 46662 1
52514 46587 46588 am
52515 46587 46593 am
52516 46588 46589 1
52517 46588 46590 am
52518 46589 46634 1
52519 46589 46663 1
52520 46590 46591 am
52521 46590 46621 1
52522 46591 46592 am
52523 46591 46597 1
52524 46592 46593 am
52525 46592 46594 1
52526 46593 46598 am
52527 46594 46595 1
52528 46594 46600 am
52529 46595 46596 1
52530 46595 46635 1
52531 46595 46636 1
52532 46596 46597 1
52533 46596 46637 1
52534 46596 46638 1
52535 46597 46639 1
52536 46597 46640 1
52537 46598 46599 am
52538 46598 46641 1
52539 46599 46600 am
52540 46599 46620 1
52541 46600 46642 1
52542 46601 46602 1
52543 46601 46643 1
52544 46601 46644 1
52545 46602 46603 am
52546 46602 46607 am
52547 46603 46604 am
52548 46604 46605 am
52549 46604 46645 1
52550 46605 46606 am
52551 46605 46614 am
52552 46606 46607 am
52553 46606 46611 am
52554 46607 46608 am
52555 46608 46609 am
52556 46608 46646 1
52557 46609 46610 am
52558 46609 46618 1
52559 46610 46611 am
52560 46610 46647 1
52561 46611 46612 am
52562 46612 46613 am
52563 46612 46622 1
52564 46613 46614 am
52565 46613 46648 1
52566 46614 46649 1
52567 46615 46650 1
52568 46616 46651 1
52569 46616 46652 1
52570 46616 46653 1
52571 46617 46654 1
52572 46618 46619 1
52573 46618 46655 1
52574 46618 46664 1
52575 46619 46656 1
52576 46619 46657 1
52577 46619 46658 1
52578 46620 46659 1
52579 46621 46660 1
52580 46622 46661 1
52581 46665 46666 am
52582 46670 46665 am
52583 46665 46717 1
52584 46666 46667 am
52585 46666 46725 1
52586 46667 46668 am
52587 46667 46673 1
52588 46668 46669 am
52589 46668 46671 1
52590 46669 46670 am
52591 46669 46726 1
52592 46670 46718 1
52593 46671 46672 am
52594 46671 46677 am
52595 46672 46673 1
52596 46672 46674 am
52597 46673 46727 1
52598 46673 46728 1
52599 46674 46675 am
52600 46674 46687 am
52601 46675 46676 am
52602 46675 46684 am
52603 46676 46677 am
52604 46676 46681 1
52605 46677 46678 1
52606 46678 46679 1
52607 46678 46729 1
52608 46678 46730 1
52609 46679 46680 1
52610 46679 46731 1
52611 46679 46732 1
52612 46680 46681 1
52613 46680 46733 1
52614 46680 46734 1
52615 46681 46682 am
52616 46682 46683 am
52617 46682 46691 1
52618 46683 46684 am
52619 46683 46688 1
52620 46684 46685 am
52621 46685 46686 am
52622 46685 46705 am
52623 46686 46687 am
52624 46686 46703 1
52625 46687 46719 1
52626 46688 46689 1
52627 46688 46735 1
52628 46688 46764 1
52629 46689 46690 am
52630 46689 46695 am
52631 46690 46691 1
52632 46690 46692 am
52633 46691 46736 1
52634 46691 46765 1
52635 46692 46693 am
52636 46692 46723 1
52637 46693 46694 am
52638 46693 46699 1
52639 46694 46695 am
52640 46694 46696 1
52641 46695 46700 am
52642 46696 46697 1
52643 46696 46702 am
52644 46697 46698 1
52645 46697 46737 1
52646 46697 46738 1
52647 46698 46699 1
52648 46698 46739 1
52649 46698 46740 1
52650 46699 46741 1
52651 46699 46742 1
52652 46700 46701 am
52653 46700 46743 1
52654 46701 46702 am
52655 46701 46722 1
52656 46702 46744 1
52657 46703 46704 1
52658 46703 46745 1
52659 46703 46746 1
52660 46704 46705 am
52661 46704 46709 am
52662 46705 46706 am
52663 46706 46707 am
52664 46706 46747 1
52665 46707 46708 am
52666 46707 46716 am
52667 46708 46709 am
52668 46708 46713 am
52669 46709 46710 am
52670 46710 46711 am
52671 46710 46748 1
52672 46711 46712 am
52673 46711 46720 1
52674 46712 46713 am
52675 46712 46749 1
52676 46713 46714 am
52677 46714 46715 am
52678 46714 46724 1
52679 46715 46716 am
52680 46715 46750 1
52681 46716 46751 1
52682 46717 46752 1
52683 46718 46753 1
52684 46718 46754 1
52685 46718 46755 1
52686 46719 46756 1
52687 46720 46721 1
52688 46720 46757 1
52689 46720 46766 1
52690 46721 46758 1
52691 46721 46759 1
52692 46721 46760 1
52693 46722 46761 1
52694 46723 46762 1
52695 46724 46763 1
52696 46767 46768 am
52697 46772 46767 am
52698 46767 46819 1
52699 46768 46769 am
52700 46768 46827 1
52701 46769 46770 am
52702 46769 46775 1
52703 46770 46771 am
52704 46770 46773 1
52705 46771 46772 am
52706 46771 46828 1
52707 46772 46820 1
52708 46773 46774 am
52709 46773 46779 am
52710 46774 46775 1
52711 46774 46776 am
52712 46775 46829 1
52713 46775 46830 1
52714 46776 46777 am
52715 46776 46789 am
52716 46777 46778 am
52717 46777 46786 am
52718 46778 46779 am
52719 46778 46783 1
52720 46779 46780 1
52721 46780 46781 1
52722 46780 46831 1
52723 46780 46832 1
52724 46781 46782 1
52725 46781 46833 1
52726 46781 46834 1
52727 46782 46783 1
52728 46782 46835 1
52729 46782 46836 1
52730 46783 46784 am
52731 46784 46785 am
52732 46784 46793 1
52733 46785 46786 am
52734 46785 46790 1
52735 46786 46787 am
52736 46787 46788 am
52737 46787 46807 am
52738 46788 46789 am
52739 46788 46805 1
52740 46789 46821 1
52741 46790 46791 1
52742 46790 46837 1
52743 46790 46866 1
52744 46791 46792 am
52745 46791 46797 am
52746 46792 46793 1
52747 46792 46794 am
52748 46793 46838 1
52749 46793 46867 1
52750 46794 46795 am
52751 46794 46825 1
52752 46795 46796 am
52753 46795 46801 1
52754 46796 46797 am
52755 46796 46798 1
52756 46797 46802 am
52757 46798 46799 1
52758 46798 46804 am
52759 46799 46800 1
52760 46799 46839 1
52761 46799 46840 1
52762 46800 46801 1
52763 46800 46841 1
52764 46800 46842 1
52765 46801 46843 1
52766 46801 46844 1
52767 46802 46803 am
52768 46802 46845 1
52769 46803 46804 am
52770 46803 46824 1
52771 46804 46846 1
52772 46805 46806 1
52773 46805 46847 1
52774 46805 46848 1
52775 46806 46807 am
52776 46806 46811 am
52777 46807 46808 am
52778 46808 46809 am
52779 46808 46849 1
52780 46809 46810 am
52781 46809 46818 am
52782 46810 46811 am
52783 46810 46815 am
52784 46811 46812 am
52785 46812 46813 am
52786 46812 46850 1
52787 46813 46814 am
52788 46813 46822 1
52789 46814 46815 am
52790 46814 46851 1
52791 46815 46816 am
52792 46816 46817 am
52793 46816 46826 1
52794 46817 46818 am
52795 46817 46852 1
52796 46818 46853 1
52797 46819 46854 1
52798 46820 46855 1
52799 46820 46856 1
52800 46820 46857 1
52801 46821 46858 1
52802 46822 46823 1
52803 46822 46859 1
52804 46822 46868 1
52805 46823 46860 1
52806 46823 46861 1
52807 46823 46862 1
52808 46824 46863 1
52809 46825 46864 1
52810 46826 46865 1
52811 46869 46870 am
52812 46874 46869 am
52813 46869 46921 1
52814 46870 46871 am
52815 46870 46929 1
52816 46871 46872 am
52817 46871 46877 1
52818 46872 46873 am
52819 46872 46875 1
52820 46873 46874 am
52821 46873 46930 1
52822 46874 46922 1
52823 46875 46876 am
52824 46875 46881 am
52825 46876 46877 1
52826 46876 46878 am
52827 46877 46931 1
52828 46877 46932 1
52829 46878 46879 am
52830 46878 46891 am
52831 46879 46880 am
52832 46879 46888 am
52833 46880 46881 am
52834 46880 46885 1
52835 46881 46882 1
52836 46882 46883 1
52837 46882 46933 1
52838 46882 46934 1
52839 46883 46884 1
52840 46883 46935 1
52841 46883 46936 1
52842 46884 46885 1
52843 46884 46937 1
52844 46884 46938 1
52845 46885 46886 am
52846 46886 46887 am
52847 46886 46895 1
52848 46887 46888 am
52849 46887 46892 1
52850 46888 46889 am
52851 46889 46890 am
52852 46889 46909 am
52853 46890 46891 am
52854 46890 46907 1
52855 46891 46923 1
52856 46892 46893 1
52857 46892 46939 1
52858 46892 46968 1
52859 46893 46894 am
52860 46893 46899 am
52861 46894 46895 1
52862 46894 46896 am
52863 46895 46940 1
52864 46895 46969 1
52865 46896 46897 am
52866 46896 46927 1
52867 46897 46898 am
52868 46897 46903 1
52869 46898 46899 am
52870 46898 46900 1
52871 46899 46904 am
52872 46900 46901 1
52873 46900 46906 am
52874 46901 46902 1
52875 46901 46941 1
52876 46901 46942 1
52877 46902 46903 1
52878 46902 46943 1
52879 46902 46944 1
52880 46903 46945 1
52881 46903 46946 1
52882 46904 46905 am
52883 46904 46947 1
52884 46905 46906 am
52885 46905 46926 1
52886 46906 46948 1
52887 46907 46908 1
52888 46907 46949 1
52889 46907 46950 1
52890 46908 46909 am
52891 46908 46913 am
52892 46909 46910 am
52893 46910 46911 am
52894 46910 46951 1
52895 46911 46912 am
52896 46911 46920 am
52897 46912 46913 am
52898 46912 46917 am
52899 46913 46914 am
52900 46914 46915 am
52901 46914 46952 1
52902 46915 46916 am
52903 46915 46924 1
52904 46916 46917 am
52905 46916 46953 1
52906 46917 46918 am
52907 46918 46919 am
52908 46918 46928 1
52909 46919 46920 am
52910 46919 46954 1
52911 46920 46955 1
52912 46921 46956 1
52913 46922 46957 1
52914 46922 46958 1
52915 46922 46959 1
52916 46923 46960 1
52917 46924 46925 1
52918 46924 46961 1
52919 46924 46970 1
52920 46925 46962 1
52921 46925 46963 1
52922 46925 46964 1
52923 46926 46965 1
52924 46927 46966 1
52925 46928 46967 1
52926 46971 46972 am
52927 46976 46971 am
52928 46971 47023 1
52929 46972 46973 am
52930 46972 47031 1
52931 46973 46974 am
52932 46973 46979 1
52933 46974 46975 am
52934 46974 46977 1
52935 46975 46976 am
52936 46975 47032 1
52937 46976 47024 1
52938 46977 46978 am
52939 46977 46983 am
52940 46978 46979 1
52941 46978 46980 am
52942 46979 47033 1
52943 46979 47034 1
52944 46980 46981 am
52945 46980 46993 am
52946 46981 46982 am
52947 46981 46990 am
52948 46982 46983 am
52949 46982 46987 1
52950 46983 46984 1
52951 46984 46985 1
52952 46984 47035 1
52953 46984 47036 1
52954 46985 46986 1
52955 46985 47037 1
52956 46985 47038 1
52957 46986 46987 1
52958 46986 47039 1
52959 46986 47040 1
52960 46987 46988 am
52961 46988 46989 am
52962 46988 46997 1
52963 46989 46990 am
52964 46989 46994 1
52965 46990 46991 am
52966 46991 46992 am
52967 46991 47011 am
52968 46992 46993 am
52969 46992 47009 1
52970 46993 47025 1
52971 46994 46995 1
52972 46994 47041 1
52973 46994 47070 1
52974 46995 46996 am
52975 46995 47001 am
52976 46996 46997 1
52977 46996 46998 am
52978 46997 47042 1
52979 46997 47071 1
52980 46998 46999 am
52981 46998 47029 1
52982 46999 47000 am
52983 46999 47005 1
52984 47000 47001 am
52985 47000 47002 1
52986 47001 47006 am
52987 47002 47003 1
52988 47002 47008 am
52989 47003 47004 1
52990 47003 47043 1
52991 47003 47044 1
52992 47004 47005 1
52993 47004 47045 1
52994 47004 47046 1
52995 47005 47047 1
52996 47005 47048 1
52997 47006 47007 am
52998 47006 47049 1
52999 47007 47008 am
53000 47007 47028 1
53001 47008 47050 1
53002 47009 47010 1
53003 47009 47051 1
53004 47009 47052 1
53005 47010 47011 am
53006 47010 47015 am
53007 47011 47012 am
53008 47012 47013 am
53009 47012 47053 1
53010 47013 47014 am
53011 47013 47022 am
53012 47014 47015 am
53013 47014 47019 am
53014 47015 47016 am
53015 47016 47017 am
53016 47016 47054 1
53017 47017 47018 am
53018 47017 47026 1
53019 47018 47019 am
53020 47018 47055 1
53021 47019 47020 am
53022 47020 47021 am
53023 47020 47030 1
53024 47021 47022 am
53025 47021 47056 1
53026 47022 47057 1
53027 47023 47058 1
53028 47024 47059 1
53029 47024 47060 1
53030 47024 47061 1
53031 47025 47062 1
53032 47026 47027 1
53033 47026 47063 1
53034 47026 47072 1
53035 47027 47064 1
53036 47027 47065 1
53037 47027 47066 1
53038 47028 47067 1
53039 47029 47068 1
53040 47030 47069 1
53041 47073 47074 am
53042 47078 47073 am
53043 47073 47125 1
53044 47074 47075 am
53045 47074 47133 1
53046 47075 47076 am
53047 47075 47081 1
53048 47076 47077 am
53049 47076 47079 1
53050 47077 47078 am
53051 47077 47134 1
53052 47078 47126 1
53053 47079 47080 am
53054 47079 47085 am
53055 47080 47081 1
53056 47080 47082 am
53057 47081 47135 1
53058 47081 47136 1
53059 47082 47083 am
53060 47082 47095 am
53061 47083 47084 am
53062 47083 47092 am
53063 47084 47085 am
53064 47084 47089 1
53065 47085 47086 1
53066 47086 47087 1
53067 47086 47137 1
53068 47086 47138 1
53069 47087 47088 1
53070 47087 47139 1
53071 47087 47140 1
53072 47088 47089 1
53073 47088 47141 1
53074 47088 47142 1
53075 47089 47090 am
53076 47090 47091 am
53077 47090 47099 1
53078 47091 47092 am
53079 47091 47096 1
53080 47092 47093 am
53081 47093 47094 am
53082 47093 47113 am
53083 47094 47095 am
53084 47094 47111 1
53085 47095 47127 1
53086 47096 47097 1
53087 47096 47143 1
53088 47096 47172 1
53089 47097 47098 am
53090 47097 47103 am
53091 47098 47099 1
53092 47098 47100 am
53093 47099 47144 1
53094 47099 47173 1
53095 47100 47101 am
53096 47100 47131 1
53097 47101 47102 am
53098 47101 47107 1
53099 47102 47103 am
53100 47102 47104 1
53101 47103 47108 am
53102 47104 47105 1
53103 47104 47110 am
53104 47105 47106 1
53105 47105 47145 1
53106 47105 47146 1
53107 47106 47107 1
53108 47106 47147 1
53109 47106 47148 1
53110 47107 47149 1
53111 47107 47150 1
53112 47108 47109 am
53113 47108 47151 1
53114 47109 47110 am
53115 47109 47130 1
53116 47110 47152 1
53117 47111 47112 1
53118 47111 47153 1
53119 47111 47154 1
53120 47112 47113 am
53121 47112 47117 am
53122 47113 47114 am
53123 47114 47115 am
53124 47114 47155 1
53125 47115 47116 am
53126 47115 47124 am
53127 47116 47117 am
53128 47116 47121 am
53129 47117 47118 am
53130 47118 47119 am
53131 47118 47156 1
53132 47119 47120 am
53133 47119 47128 1
53134 47120 47121 am
53135 47120 47157 1
53136 47121 47122 am
53137 47122 47123 am
53138 47122 47132 1
53139 47123 47124 am
53140 47123 47158 1
53141 47124 47159 1
53142 47125 47160 1
53143 47126 47161 1
53144 47126 47162 1
53145 47126 47163 1
53146 47127 47164 1
53147 47128 47129 1
53148 47128 47165 1
53149 47128 47174 1
53150 47129 47166 1
53151 47129 47167 1
53152 47129 47168 1
53153 47130 47169 1
53154 47131 47170 1
53155 47132 47171 1
53156 47175 47176 am
53157 47180 47175 am
53158 47175 47227 1
53159 47176 47177 am
53160 47176 47235 1
53161 47177 47178 am
53162 47177 47183 1
53163 47178 47179 am
53164 47178 47181 1
53165 47179 47180 am
53166 47179 47236 1
53167 47180 47228 1
53168 47181 47182 am
53169 47181 47187 am
53170 47182 47183 1
53171 47182 47184 am
53172 47183 47237 1
53173 47183 47238 1
53174 47184 47185 am
53175 47184 47197 am
53176 47185 47186 am
53177 47185 47194 am
53178 47186 47187 am
53179 47186 47191 1
53180 47187 47188 1
53181 47188 47189 1
53182 47188 47239 1
53183 47188 47240 1
53184 47189 47190 1
53185 47189 47241 1
53186 47189 47242 1
53187 47190 47191 1
53188 47190 47243 1
53189 47190 47244 1
53190 47191 47192 am
53191 47192 47193 am
53192 47192 47201 1
53193 47193 47194 am
53194 47193 47198 1
53195 47194 47195 am
53196 47195 47196 am
53197 47195 47215 am
53198 47196 47197 am
53199 47196 47213 1
53200 47197 47229 1
53201 47198 47199 1
53202 47198 47245 1
53203 47198 47274 1
53204 47199 47200 am
53205 47199 47205 am
53206 47200 47201 1
53207 47200 47202 am
53208 47201 47246 1
53209 47201 47275 1
53210 47202 47203 am
53211 47202 47233 1
53212 47203 47204 am
53213 47203 47209 1
53214 47204 47205 am
53215 47204 47206 1
53216 47205 47210 am
53217 47206 47207 1
53218 47206 47212 am
53219 47207 47208 1
53220 47207 47247 1
53221 47207 47248 1
53222 47208 47209 1
53223 47208 47249 1
53224 47208 47250 1
53225 47209 47251 1
53226 47209 47252 1
53227 47210 47211 am
53228 47210 47253 1
53229 47211 47212 am
53230 47211 47232 1
53231 47212 47254 1
53232 47213 47214 1
53233 47213 47255 1
53234 47213 47256 1
53235 47214 47215 am
53236 47214 47219 am
53237 47215 47216 am
53238 47216 47217 am
53239 47216 47257 1
53240 47217 47218 am
53241 47217 47226 am
53242 47218 47219 am
53243 47218 47223 am
53244 47219 47220 am
53245 47220 47221 am
53246 47220 47258 1
53247 47221 47222 am
53248 47221 47230 1
53249 47222 47223 am
53250 47222 47259 1
53251 47223 47224 am
53252 47224 47225 am
53253 47224 47234 1
53254 47225 47226 am
53255 47225 47260 1
53256 47226 47261 1
53257 47227 47262 1
53258 47228 47263 1
53259 47228 47264 1
53260 47228 47265 1
53261 47229 47266 1
53262 47230 47231 1
53263 47230 47267 1
53264 47230 47276 1
53265 47231 47268 1
53266 47231 47269 1
53267 47231 47270 1
53268 47232 47271 1
53269 47233 47272 1
53270 47234 47273 1
53271 47277 47278 am
53272 47282 47277 am
53273 47277 47329 1
53274 47278 47279 am
53275 47278 47337 1
53276 47279 47280 am
53277 47279 47285 1
53278 47280 47281 am
53279 47280 47283 1
53280 47281 47282 am
53281 47281 47338 1
53282 47282 47330 1
53283 47283 47284 am
53284 47283 47289 am
53285 47284 47285 1
53286 47284 47286 am
53287 47285 47339 1
53288 47285 47340 1
53289 47286 47287 am
53290 47286 47299 am
53291 47287 47288 am
53292 47287 47296 am
53293 47288 47289 am
53294 47288 47293 1
53295 47289 47290 1
53296 47290 47291 1
53297 47290 47341 1
53298 47290 47342 1
53299 47291 47292 1
53300 47291 47343 1
53301 47291 47344 1
53302 47292 47293 1
53303 47292 47345 1
53304 47292 47346 1
53305 47293 47294 am
53306 47294 47295 am
53307 47294 47303 1
53308 47295 47296 am
53309 47295 47300 1
53310 47296 47297 am
53311 47297 47298 am
53312 47297 47317 am
53313 47298 47299 am
53314 47298 47315 1
53315 47299 47331 1
53316 47300 47301 1
53317 47300 47347 1
53318 47300 47376 1
53319 47301 47302 am
53320 47301 47307 am
53321 47302 47303 1
53322 47302 47304 am
53323 47303 47348 1
53324 47303 47377 1
53325 47304 47305 am
53326 47304 47335 1
53327 47305 47306 am
53328 47305 47311 1
53329 47306 47307 am
53330 47306 47308 1
53331 47307 47312 am
53332 47308 47309 1
53333 47308 47314 am
53334 47309 47310 1
53335 47309 47349 1
53336 47309 47350 1
53337 47310 47311 1
53338 47310 47351 1
53339 47310 47352 1
53340 47311 47353 1
53341 47311 47354 1
53342 47312 47313 am
53343 47312 47355 1
53344 47313 47314 am
53345 47313 47334 1
53346 47314 47356 1
53347 47315 47316 1
53348 47315 47357 1
53349 47315 47358 1
53350 47316 47317 am
53351 47316 47321 am
53352 47317 47318 am
53353 47318 47319 am
53354 47318 47359 1
53355 47319 47320 am
53356 47319 47328 am
53357 47320 47321 am
53358 47320 47325 am
53359 47321 47322 am
53360 47322 47323 am
53361 47322 47360 1
53362 47323 47324 am
53363 47323 47332 1
53364 47324 47325 am
53365 47324 47361 1
53366 47325 47326 am
53367 47326 47327 am
53368 47326 47336 1
53369 47327 47328 am
53370 47327 47362 1
53371 47328 47363 1
53372 47329 47364 1
53373 47330 47365 1
53374 47330 47366 1
53375 47330 47367 1
53376 47331 47368 1
53377 47332 47333 1
53378 47332 47369 1
53379 47332 47378 1
53380 47333 47370 1
53381 47333 47371 1
53382 47333 47372 1
53383 47334 47373 1
53384 47335 47374 1
53385 47336 47375 1
53386 47379 47380 am
53387 47384 47379 am
53388 47379 47431 1
53389 47380 47381 am
53390 47380 47439 1
53391 47381 47382 am
53392 47381 47387 1
53393 47382 47383 am
53394 47382 47385 1
53395 47383 47384 am
53396 47383 47440 1
53397 47384 47432 1
53398 47385 47386 am
53399 47385 47391 am
53400 47386 47387 1
53401 47386 47388 am
53402 47387 47441 1
53403 47387 47442 1
53404 47388 47389 am
53405 47388 47401 am
53406 47389 47390 am
53407 47389 47398 am
53408 47390 47391 am
53409 47390 47395 1
53410 47391 47392 1
53411 47392 47393 1
53412 47392 47443 1
53413 47392 47444 1
53414 47393 47394 1
53415 47393 47445 1
53416 47393 47446 1
53417 47394 47395 1
53418 47394 47447 1
53419 47394 47448 1
53420 47395 47396 am
53421 47396 47397 am
53422 47396 47405 1
53423 47397 47398 am
53424 47397 47402 1
53425 47398 47399 am
53426 47399 47400 am
53427 47399 47419 am
53428 47400 47401 am
53429 47400 47417 1
53430 47401 47433 1
53431 47402 47403 1
53432 47402 47449 1
53433 47402 47478 1
53434 47403 47404 am
53435 47403 47409 am
53436 47404 47405 1
53437 47404 47406 am
53438 47405 47450 1
53439 47405 47479 1
53440 47406 47407 am
53441 47406 47437 1
53442 47407 47408 am
53443 47407 47413 1
53444 47408 47409 am
53445 47408 47410 1
53446 47409 47414 am
53447 47410 47411 1
53448 47410 47416 am
53449 47411 47412 1
53450 47411 47451 1
53451 47411 47452 1
53452 47412 47413 1
53453 47412 47453 1
53454 47412 47454 1
53455 47413 47455 1
53456 47413 47456 1
53457 47414 47415 am
53458 47414 47457 1
53459 47415 47416 am
53460 47415 47436 1
53461 47416 47458 1
53462 47417 47418 1
53463 47417 47459 1
53464 47417 47460 1
53465 47418 47419 am
53466 47418 47423 am
53467 47419 47420 am
53468 47420 47421 am
53469 47420 47461 1
53470 47421 47422 am
53471 47421 47430 am
53472 47422 47423 am
53473 47422 47427 am
53474 47423 47424 am
53475 47424 47425 am
53476 47424 47462 1
53477 47425 47426 am
53478 47425 47434 1
53479 47426 47427 am
53480 47426 47463 1
53481 47427 47428 am
53482 47428 47429 am
53483 47428 47438 1
53484 47429 47430 am
53485 47429 47464 1
53486 47430 47465 1
53487 47431 47466 1
53488 47432 47467 1
53489 47432 47468 1
53490 47432 47469 1
53491 47433 47470 1
53492 47434 47435 1
53493 47434 47471 1
53494 47434 47480 1
53495 47435 47472 1
53496 47435 47473 1
53497 47435 47474 1
53498 47436 47475 1
53499 47437 47476 1
53500 47438 47477 1
53501 47481 47482 1
53502 47481 47486 1
53503 47481 47628 1
53504 47481 47629 1
53505 47483 47482 1
53506 47482 47630 1
53507 47482 47631 1
53508 47484 47483 1
53509 47483 47490 1
53510 47483 47632 1
53511 47485 47484 1
53512 47484 47487 1
53513 47484 47633 1
53514 47486 47485 1
53515 47485 47634 1
53516 47485 47635 1
53517 47488 47487 1
53518 47487 47494 1
53519 47487 47636 1
53520 47489 47488 1
53521 47488 47491 1
53522 47488 47637 1
53523 47490 47489 1
53524 47489 47638 1
53525 47489 47639 1
53526 47490 47640 1
53527 47490 47641 1
53528 47492 47491 1
53529 47493 47492 1
53530 47492 47498 1
53531 47492 47642 1
53532 47494 47493 1
53533 47493 47495 1
53534 47493 47643 1
53535 47494 47644 1
53536 47494 47645 1
53537 47496 47495 1
53538 47495 47505 2
53539 47497 47496 1
53540 47496 47502 1
53541 47498 47497 1
53542 47497 47499 1
53543 47498 47510 1
53544 47498 47646 1
53545 47500 47499 1
53546 47499 47512 1
53547 47501 47500 1
53548 47500 47509 1
53549 47502 47501 1
53550 47501 47506 1
53551 47502 47503 1
53552 47504 47503 1
53553 47503 47647 1
53554 47503 47648 1
53555 47505 47504 1
53556 47504 47649 1
53557 47504 47650 1
53558 47505 47651 1
53559 47507 47506 1
53560 47508 47507 1
53561 47507 47543 1
53562 47509 47508 1
53563 47508 47527 1
53564 47509 47525 1
53565 47511 47510 1
53566 47510 47516 2
53567 47512 47511 1
53568 47511 47513 1
53569 47511 47652 1
53570 47512 47526 1
53571 47514 47513 2
53572 47513 47520 1
53573 47515 47514 1
53574 47514 47517 1
53575 47516 47515 1
53576 47515 47653 1
53577 47515 47654 1
53578 47516 47655 1
53579 47518 47517 1
53580 47517 47656 1
53581 47517 47657 1
53582 47519 47518 1
53583 47518 47658 1
53584 47518 47659 1
53585 47520 47519 2
53586 47519 47524 1
53587 47520 47521 1
53588 47522 47521 1
53589 47521 47660 1
53590 47521 47661 1
53591 47523 47522 1
53592 47522 47597 1
53593 47522 47662 1
53594 47524 47523 1
53595 47523 47663 1
53596 47523 47664 1
53597 47524 47665 1
53598 47524 47666 1
53599 47526 47525 1
53600 47525 47529 1
53601 47526 47667 1
53602 47528 47527 1
53603 47527 47533 1
53604 47529 47528 1
53605 47528 47530 1
53606 47531 47530 1
53607 47530 47668 1
53608 47532 47531 1
53609 47531 47537 1
53610 47533 47532 1
53611 47532 47534 1
53612 47533 47542 1
53613 47535 47534 1
53614 47534 47544 1
53615 47536 47535 1
53616 47535 47541 1
53617 47537 47536 1
53618 47536 47538 1
53619 47537 47669 1
53620 47539 47538 1
53621 47538 47554 1
53622 47540 47539 1
53623 47539 47551 1
53624 47541 47540 1
53625 47540 47548 1
53626 47541 47546 1
53627 47543 47542 1
53628 47542 47545 1
53629 47543 47670 1
53630 47545 47544 1
53631 47544 47547 1
53632 47545 47563 1
53633 47547 47546 1
53634 47546 47550 1
53635 47547 47565 1
53636 47549 47548 1
53637 47548 47581 1
53638 47550 47549 1
53639 47549 47576 1
53640 47550 47574 1
53641 47552 47551 1
53642 47553 47552 1
53643 47552 47558 1
53644 47552 47671 1
53645 47554 47553 1
53646 47553 47555 1
53647 47553 47672 1
53648 47554 47600 1
53649 47554 47673 1
53650 47556 47555 1
53651 47555 47674 1
53652 47555 47675 1
53653 47557 47556 1
53654 47556 47676 1
53655 47556 47677 1
53656 47558 47557 1
53657 47557 47562 1
53658 47557 47678 1
53659 47558 47559 1
53660 47558 47679 1
53661 47560 47559 1
53662 47559 47680 1
53663 47559 47681 1
53664 47561 47560 1
53665 47560 47682 1
53666 47560 47683 1
53667 47562 47561 1
53668 47561 47684 1
53669 47561 47685 1
53670 47562 47686 1
53671 47564 47563 1
53672 47563 47569 1
53673 47565 47564 1
53674 47564 47566 1
53675 47565 47575 1
53676 47567 47566 1
53677 47568 47567 1
53678 47567 47573 1
53679 47567 47687 1
53680 47569 47568 1
53681 47568 47570 1
53682 47568 47688 1
53683 47571 47570 1
53684 47570 47689 1
53685 47570 47690 1
53686 47572 47571 1
53687 47571 47691 1
53688 47571 47692 1
53689 47573 47572 1
53690 47572 47693 1
53691 47572 47694 1
53692 47573 47695 1
53693 47573 47696 1
53694 47575 47574 1
53695 47574 47578 1
53696 47575 47697 1
53697 47577 47576 1
53698 47576 47579 1
53699 47578 47577 1
53700 47577 47582 1
53701 47578 47698 1
53702 47580 47579 1
53703 47579 47584 1
53704 47581 47580 1
53705 47580 47585 1
53706 47581 47699 1
53707 47583 47582 1
53708 47584 47583 1
53709 47583 47594 1
53710 47584 47587 1
53711 47586 47585 1
53712 47585 47591 1
53713 47585 47700 1
53714 47587 47586 1
53715 47586 47588 1
53716 47586 47701 1
53717 47587 47592 1
53718 47589 47588 1
53719 47588 47595 1
53720 47588 47702 1
53721 47590 47589 1
53722 47589 47703 1
53723 47589 47704 1
53724 47591 47590 1
53725 47590 47705 1
53726 47590 47706 1
53727 47591 47707 1
53728 47591 47708 1
53729 47593 47592 1
53730 47592 47596 1
53731 47594 47593 1
53732 47593 47604 1
53733 47594 47601 1
53734 47595 47596 1
53735 47595 47619 1
53736 47596 47615 1
53737 47597 47598 1
53738 47597 47599 1
53739 47597 47709 1
53740 47598 47710 1
53741 47598 47711 1
53742 47598 47712 1
53743 47599 47713 1
53744 47599 47714 1
53745 47599 47715 1
53746 47600 47716 1
53747 47602 47601 1
53748 47601 47717 1
53749 47603 47602 1
53750 47602 47718 1
53751 47604 47603 1
53752 47603 47608 1
53753 47604 47605 1
53754 47606 47605 1
53755 47605 47615 1
53756 47607 47606 1
53757 47606 47612 1
53758 47608 47607 1
53759 47607 47609 1
53760 47608 47719 1
53761 47610 47609 1
53762 47609 47720 1
53763 47611 47610 1
53764 47610 47721 1
53765 47612 47611 1
53766 47611 47618 1
53767 47612 47613 1
53768 47614 47613 1
53769 47613 47616 1
53770 47615 47614 1
53771 47614 47620 1
53772 47617 47616 1
53773 47616 47621 1
53774 47618 47617 1
53775 47617 47722 1
53776 47618 47723 1
53777 47620 47619 1
53778 47619 47724 1
53779 47620 47622 1
53780 47622 47621 1
53781 47621 47626 1
53782 47622 47623 1
53783 47624 47623 1
53784 47623 47725 1
53785 47623 47726 1
53786 47625 47624 1
53787 47624 47727 1
53788 47624 47728 1
53789 47626 47625 1
53790 47625 47729 1
53791 47625 47730 1
53792 47626 47627 2
53793 47731 47732 1
53794 47731 47736 1
53795 47731 47878 1
53796 47731 47879 1
53797 47733 47732 1
53798 47732 47880 1
53799 47732 47881 1
53800 47734 47733 1
53801 47733 47740 1
53802 47733 47882 1
53803 47735 47734 1
53804 47734 47737 1
53805 47734 47883 1
53806 47736 47735 1
53807 47735 47884 1
53808 47735 47885 1
53809 47738 47737 1
53810 47737 47744 1
53811 47737 47886 1
53812 47739 47738 1
53813 47738 47741 1
53814 47738 47887 1
53815 47740 47739 1
53816 47739 47888 1
53817 47739 47889 1
53818 47740 47890 1
53819 47740 47891 1
53820 47742 47741 1
53821 47743 47742 1
53822 47742 47748 1
53823 47742 47892 1
53824 47744 47743 1
53825 47743 47745 1
53826 47743 47893 1
53827 47744 47894 1
53828 47744 47895 1
53829 47746 47745 1
53830 47745 47755 2
53831 47747 47746 1
53832 47746 47752 1
53833 47748 47747 1
53834 47747 47749 1
53835 47748 47760 1
53836 47748 47896 1
53837 47750 47749 1
53838 47749 47762 1
53839 47751 47750 1
53840 47750 47759 1
53841 47752 47751 1
53842 47751 47756 1
53843 47752 47753 1
53844 47754 47753 1
53845 47753 47897 1
53846 47753 47898 1
53847 47755 47754 1
53848 47754 47899 1
53849 47754 47900 1
53850 47755 47901 1
53851 47757 47756 1
53852 47758 47757 1
53853 47757 47793 1
53854 47759 47758 1
53855 47758 47777 1
53856 47759 47775 1
53857 47761 47760 1
53858 47760 47766 2
53859 47762 47761 1
53860 47761 47763 1
53861 47761 47902 1
53862 47762 47776 1
53863 47764 47763 2
53864 47763 47770 1
53865 47765 47764 1
53866 47764 47767 1
53867 47766 47765 1
53868 47765 47903 1
53869 47765 47904 1
53870 47766 47905 1
53871 47768 47767 1
53872 47767 47906 1
53873 47767 47907 1
53874 47769 47768 1
53875 47768 47908 1
53876 47768 47909 1
53877 47770 47769 2
53878 47769 47774 1
53879 47770 47771 1
53880 47772 47771 1
53881 47771 47910 1
53882 47771 47911 1
53883 47773 47772 1
53884 47772 47847 1
53885 47772 47912 1
53886 47774 47773 1
53887 47773 47913 1
53888 47773 47914 1
53889 47774 47915 1
53890 47774 47916 1
53891 47776 47775 1
53892 47775 47779 1
53893 47776 47917 1
53894 47778 47777 1
53895 47777 47783 1
53896 47779 47778 1
53897 47778 47780 1
53898 47781 47780 1
53899 47780 47918 1
53900 47782 47781 1
53901 47781 47787 1
53902 47783 47782 1
53903 47782 47784 1
53904 47783 47792 1
53905 47785 47784 1
53906 47784 47794 1
53907 47786 47785 1
53908 47785 47791 1
53909 47787 47786 1
53910 47786 47788 1
53911 47787 47919 1
53912 47789 47788 1
53913 47788 47804 1
53914 47790 47789 1
53915 47789 47801 1
53916 47791 47790 1
53917 47790 47798 1
53918 47791 47796 1
53919 47793 47792 1
53920 47792 47795 1
53921 47793 47920 1
53922 47795 47794 1
53923 47794 47797 1
53924 47795 47813 1
53925 47797 47796 1
53926 47796 47800 1
53927 47797 47815 1
53928 47799 47798 1
53929 47798 47831 1
53930 47800 47799 1
53931 47799 47826 1
53932 47800 47824 1
53933 47802 47801 1
53934 47803 47802 1
53935 47802 47808 1
53936 47802 47921 1
53937 47804 47803 1
53938 47803 47805 1
53939 47803 47922 1
53940 47804 47850 1
53941 47804 47923 1
53942 47806 47805 1
53943 47805 47924 1
53944 47805 47925 1
53945 47807 47806 1
53946 47806 47926 1
53947 47806 47927 1
53948 47808 47807 1
53949 47807 47812 1
53950 47807 47928 1
53951 47808 47809 1
53952 47808 47929 1
53953 47810 47809 1
53954 47809 47930 1
53955 47809 47931 1
53956 47811 47810 1
53957 47810 47932 1
53958 47810 47933 1
53959 47812 47811 1
53960 47811 47934 1
53961 47811 47935 1
53962 47812 47936 1
53963 47814 47813 1
53964 47813 47819 1
53965 47815 47814 1
53966 47814 47816 1
53967 47815 47825 1
53968 47817 47816 1
53969 47818 47817 1
53970 47817 47823 1
53971 47817 47937 1
53972 47819 47818 1
53973 47818 47820 1
53974 47818 47938 1
53975 47821 47820 1
53976 47820 47939 1
53977 47820 47940 1
53978 47822 47821 1
53979 47821 47941 1
53980 47821 47942 1
53981 47823 47822 1
53982 47822 47943 1
53983 47822 47944 1
53984 47823 47945 1
53985 47823 47946 1
53986 47825 47824 1
53987 47824 47828 1
53988 47825 47947 1
53989 47827 47826 1
53990 47826 47829 1
53991 47828 47827 1
53992 47827 47832 1
53993 47828 47948 1
53994 47830 47829 1
53995 47829 47834 1
53996 47831 47830 1
53997 47830 47835 1
53998 47831 47949 1
53999 47833 47832 1
54000 47834 47833 1
54001 47833 47844 1
54002 47834 47837 1
54003 47836 47835 1
54004 47835 47841 1
54005 47835 47950 1
54006 47837 47836 1
54007 47836 47838 1
54008 47836 47951 1
54009 47837 47842 1
54010 47839 47838 1
54011 47838 47845 1
54012 47838 47952 1
54013 47840 47839 1
54014 47839 47953 1
54015 47839 47954 1
54016 47841 47840 1
54017 47840 47955 1
54018 47840 47956 1
54019 47841 47957 1
54020 47841 47958 1
54021 47843 47842 1
54022 47842 47846 1
54023 47844 47843 1
54024 47843 47854 1
54025 47844 47851 1
54026 47845 47846 1
54027 47845 47869 1
54028 47846 47865 1
54029 47847 47848 1
54030 47847 47849 1
54031 47847 47959 1
54032 47848 47960 1
54033 47848 47961 1
54034 47848 47962 1
54035 47849 47963 1
54036 47849 47964 1
54037 47849 47965 1
54038 47850 47966 1
54039 47852 47851 1
54040 47851 47967 1
54041 47853 47852 1
54042 47852 47968 1
54043 47854 47853 1
54044 47853 47858 1
54045 47854 47855 1
54046 47856 47855 1
54047 47855 47865 1
54048 47857 47856 1
54049 47856 47862 1
54050 47858 47857 1
54051 47857 47859 1
54052 47858 47969 1
54053 47860 47859 1
54054 47859 47970 1
54055 47861 47860 1
54056 47860 47971 1
54057 47862 47861 1
54058 47861 47868 1
54059 47862 47863 1
54060 47864 47863 1
54061 47863 47866 1
54062 47865 47864 1
54063 47864 47870 1
54064 47867 47866 1
54065 47866 47871 1
54066 47868 47867 1
54067 47867 47972 1
54068 47868 47973 1
54069 47870 47869 1
54070 47869 47974 1
54071 47870 47872 1
54072 47872 47871 1
54073 47871 47876 1
54074 47872 47873 1
54075 47874 47873 1
54076 47873 47975 1
54077 47873 47976 1
54078 47875 47874 1
54079 47874 47977 1
54080 47874 47978 1
54081 47876 47875 1
54082 47875 47979 1
54083 47875 47980 1
54084 47876 47877 2
54085 47981 47982 1
54086 47981 47986 1
54087 47981 48128 1
54088 47981 48129 1
54089 47983 47982 1
54090 47982 48130 1
54091 47982 48131 1
54092 47984 47983 1
54093 47983 47990 1
54094 47983 48132 1
54095 47985 47984 1
54096 47984 47987 1
54097 47984 48133 1
54098 47986 47985 1
54099 47985 48134 1
54100 47985 48135 1
54101 47988 47987 1
54102 47987 47994 1
54103 47987 48136 1
54104 47989 47988 1
54105 47988 47991 1
54106 47988 48137 1
54107 47990 47989 1
54108 47989 48138 1
54109 47989 48139 1
54110 47990 48140 1
54111 47990 48141 1
54112 47992 47991 1
54113 47993 47992 1
54114 47992 47998 1
54115 47992 48142 1
54116 47994 47993 1
54117 47993 47995 1
54118 47993 48143 1
54119 47994 48144 1
54120 47994 48145 1
54121 47996 47995 1
54122 47995 48005 2
54123 47997 47996 1
54124 47996 48002 1
54125 47998 47997 1
54126 47997 47999 1
54127 47998 48010 1
54128 47998 48146 1
54129 48000 47999 1
54130 47999 48012 1
54131 48001 48000 1
54132 48000 48009 1
54133 48002 48001 1
54134 48001 48006 1
54135 48002 48003 1
54136 48004 48003 1
54137 48003 48147 1
54138 48003 48148 1
54139 48005 48004 1
54140 48004 48149 1
54141 48004 48150 1
54142 48005 48151 1
54143 48007 48006 1
54144 48008 48007 1
54145 48007 48043 1
54146 48009 48008 1
54147 48008 48027 1
54148 48009 48025 1
54149 48011 48010 1
54150 48010 48016 2
54151 48012 48011 1
54152 48011 48013 1
54153 48011 48152 1
54154 48012 48026 1
54155 48014 48013 2
54156 48013 48020 1
54157 48015 48014 1
54158 48014 48017 1
54159 48016 48015 1
54160 48015 48153 1
54161 48015 48154 1
54162 48016 48155 1
54163 48018 48017 1
54164 48017 48156 1
54165 48017 48157 1
54166 48019 48018 1
54167 48018 48158 1
54168 48018 48159 1
54169 48020 48019 2
54170 48019 48024 1
54171 48020 48021 1
54172 48022 48021 1
54173 48021 48160 1
54174 48021 48161 1
54175 48023 48022 1
54176 48022 48097 1
54177 48022 48162 1
54178 48024 48023 1
54179 48023 48163 1
54180 48023 48164 1
54181 48024 48165 1
54182 48024 48166 1
54183 48026 48025 1
54184 48025 48029 1
54185 48026 48167 1
54186 48028 48027 1
54187 48027 48033 1
54188 48029 48028 1
54189 48028 48030 1
54190 48031 48030 1
54191 48030 48168 1
54192 48032 48031 1
54193 48031 48037 1
54194 48033 48032 1
54195 48032 48034 1
54196 48033 48042 1
54197 48035 48034 1
54198 48034 48044 1
54199 48036 48035 1
54200 48035 48041 1
54201 48037 48036 1
54202 48036 48038 1
54203 48037 48169 1
54204 48039 48038 1
54205 48038 48054 1
54206 48040 48039 1
54207 48039 48051 1
54208 48041 48040 1
54209 48040 48048 1
54210 48041 48046 1
54211 48043 48042 1
54212 48042 48045 1
54213 48043 48170 1
54214 48045 48044 1
54215 48044 48047 1
54216 48045 48063 1
54217 48047 48046 1
54218 48046 48050 1
54219 48047 48065 1
54220 48049 48048 1
54221 48048 48081 1
54222 48050 48049 1
54223 48049 48076 1
54224 48050 48074 1
54225 48052 48051 1
54226 48053 48052 1
54227 48052 48058 1
54228 48052 48171 1
54229 48054 48053 1
54230 48053 48055 1
54231 48053 48172 1
54232 48054 48100 1
54233 48054 48173 1
54234 48056 48055 1
54235 48055 48174 1
54236 48055 48175 1
54237 48057 48056 1
54238 48056 48176 1
54239 48056 48177 1
54240 48058 48057 1
54241 48057 48062 1
54242 48057 48178 1
54243 48058 48059 1
54244 48058 48179 1
54245 48060 48059 1
54246 48059 48180 1
54247 48059 48181 1
54248 48061 48060 1
54249 48060 48182 1
54250 48060 48183 1
54251 48062 48061 1
54252 48061 48184 1
54253 48061 48185 1
54254 48062 48186 1
54255 48064 48063 1
54256 48063 48069 1
54257 48065 48064 1
54258 48064 48066 1
54259 48065 48075 1
54260 48067 48066 1
54261 48068 48067 1
54262 48067 48073 1
54263 48067 48187 1
54264 48069 48068 1
54265 48068 48070 1
54266 48068 48188 1
54267 48071 48070 1
54268 48070 48189 1
54269 48070 48190 1
54270 48072 48071 1
54271 48071 48191 1
54272 48071 48192 1
54273 48073 48072 1
54274 48072 48193 1
54275 48072 48194 1
54276 48073 48195 1
54277 48073 48196 1
54278 48075 48074 1
54279 48074 48078 1
54280 48075 48197 1
54281 48077 48076 1
54282 48076 48079 1
54283 48078 48077 1
54284 48077 48082 1
54285 48078 48198 1
54286 48080 48079 1
54287 48079 48084 1
54288 48081 48080 1
54289 48080 48085 1
54290 48081 48199 1
54291 48083 48082 1
54292 48084 48083 1
54293 48083 48094 1
54294 48084 48087 1
54295 48086 48085 1
54296 48085 48091 1
54297 48085 48200 1
54298 48087 48086 1
54299 48086 48088 1
54300 48086 48201 1
54301 48087 48092 1
54302 48089 48088 1
54303 48088 48095 1
54304 48088 48202 1
54305 48090 48089 1
54306 48089 48203 1
54307 48089 48204 1
54308 48091 48090 1
54309 48090 48205 1
54310 48090 48206 1
54311 48091 48207 1
54312 48091 48208 1
54313 48093 48092 1
54314 48092 48096 1
54315 48094 48093 1
54316 48093 48104 1
54317 48094 48101 1
54318 48095 48096 1
54319 48095 48119 1
54320 48096 48115 1
54321 48097 48098 1
54322 48097 48099 1
54323 48097 48209 1
54324 48098 48210 1
54325 48098 48211 1
54326 48098 48212 1
54327 48099 48213 1
54328 48099 48214 1
54329 48099 48215 1
54330 48100 48216 1
54331 48102 48101 1
54332 48101 48217 1
54333 48103 48102 1
54334 48102 48218 1
54335 48104 48103 1
54336 48103 48108 1
54337 48104 48105 1
54338 48106 48105 1
54339 48105 48115 1
54340 48107 48106 1
54341 48106 48112 1
54342 48108 48107 1
54343 48107 48109 1
54344 48108 48219 1
54345 48110 48109 1
54346 48109 48220 1
54347 48111 48110 1
54348 48110 48221 1
54349 48112 48111 1
54350 48111 48118 1
54351 48112 48113 1
54352 48114 48113 1
54353 48113 48116 1
54354 48115 48114 1
54355 48114 48120 1
54356 48117 48116 1
54357 48116 48121 1
54358 48118 48117 1
54359 48117 48222 1
54360 48118 48223 1
54361 48120 48119 1
54362 48119 48224 1
54363 48120 48122 1
54364 48122 48121 1
54365 48121 48126 1
54366 48122 48123 1
54367 48124 48123 1
54368 48123 48225 1
54369 48123 48226 1
54370 48125 48124 1
54371 48124 48227 1
54372 48124 48228 1
54373 48126 48125 1
54374 48125 48229 1
54375 48125 48230 1
54376 48126 48127 2
54377 48231 48232 1
54378 48231 48236 1
54379 48231 48378 1
54380 48231 48379 1
54381 48233 48232 1
54382 48232 48380 1
54383 48232 48381 1
54384 48234 48233 1
54385 48233 48240 1
54386 48233 48382 1
54387 48235 48234 1
54388 48234 48237 1
54389 48234 48383 1
54390 48236 48235 1
54391 48235 48384 1
54392 48235 48385 1
54393 48238 48237 1
54394 48237 48244 1
54395 48237 48386 1
54396 48239 48238 1
54397 48238 48241 1
54398 48238 48387 1
54399 48240 48239 1
54400 48239 48388 1
54401 48239 48389 1
54402 48240 48390 1
54403 48240 48391 1
54404 48242 48241 1
54405 48243 48242 1
54406 48242 48248 1
54407 48242 48392 1
54408 48244 48243 1
54409 48243 48245 1
54410 48243 48393 1
54411 48244 48394 1
54412 48244 48395 1
54413 48246 48245 1
54414 48245 48255 2
54415 48247 48246 1
54416 48246 48252 1
54417 48248 48247 1
54418 48247 48249 1
54419 48248 48260 1
54420 48248 48396 1
54421 48250 48249 1
54422 48249 48262 1
54423 48251 48250 1
54424 48250 48259 1
54425 48252 48251 1
54426 48251 48256 1
54427 48252 48253 1
54428 48254 48253 1
54429 48253 48397 1
54430 48253 48398 1
54431 48255 48254 1
54432 48254 48399 1
54433 48254 48400 1
54434 48255 48401 1
54435 48257 48256 1
54436 48258 48257 1
54437 48257 48293 1
54438 48259 48258 1
54439 48258 48277 1
54440 48259 48275 1
54441 48261 48260 1
54442 48260 48266 2
54443 48262 48261 1
54444 48261 48263 1
54445 48261 48402 1
54446 48262 48276 1
54447 48264 48263 2
54448 48263 48270 1
54449 48265 48264 1
54450 48264 48267 1
54451 48266 48265 1
54452 48265 48403 1
54453 48265 48404 1
54454 48266 48405 1
54455 48268 48267 1
54456 48267 48406 1
54457 48267 48407 1
54458 48269 48268 1
54459 48268 48408 1
54460 48268 48409 1
54461 48270 48269 2
54462 48269 48274 1
54463 48270 48271 1
54464 48272 48271 1
54465 48271 48410 1
54466 48271 48411 1
54467 48273 48272 1
54468 48272 48347 1
54469 48272 48412 1
54470 48274 48273 1
54471 48273 48413 1
54472 48273 48414 1
54473 48274 48415 1
54474 48274 48416 1
54475 48276 48275 1
54476 48275 48279 1
54477 48276 48417 1
54478 48278 48277 1
54479 48277 48283 1
54480 48279 48278 1
54481 48278 48280 1
54482 48281 48280 1
54483 48280 48418 1
54484 48282 48281 1
54485 48281 48287 1
54486 48283 48282 1
54487 48282 48284 1
54488 48283 48292 1
54489 48285 48284 1
54490 48284 48294 1
54491 48286 48285 1
54492 48285 48291 1
54493 48287 48286 1
54494 48286 48288 1
54495 48287 48419 1
54496 48289 48288 1
54497 48288 48304 1
54498 48290 48289 1
54499 48289 48301 1
54500 48291 48290 1
54501 48290 48298 1
54502 48291 48296 1
54503 48293 48292 1
54504 48292 48295 1
54505 48293 48420 1
54506 48295 48294 1
54507 48294 48297 1
54508 48295 48313 1
54509 48297 48296 1
54510 48296 48300 1
54511 48297 48315 1
54512 48299 48298 1
54513 48298 48331 1
54514 48300 48299 1
54515 48299 48326 1
54516 48300 48324 1
54517 48302 48301 1
54518 48303 48302 1
54519 48302 48308 1
54520 48302 48421 1
54521 48304 48303 1
54522 48303 48305 1
54523 48303 48422 1
54524 48304 48350 1
54525 48304 48423 1
54526 48306 48305 1
54527 48305 48424 1
54528 48305 48425 1
54529 48307 48306 1
54530 48306 48426 1
54531 48306 48427 1
54532 48308 48307 1
54533 48307 48312 1
54534 48307 48428 1
54535 48308 48309 1
54536 48308 48429 1
54537 48310 48309 1
54538 48309 48430 1
54539 48309 48431 1
54540 48311 48310 1
54541 48310 48432 1
54542 48310 48433 1
54543 48312 48311 1
54544 48311 48434 1
54545 48311 48435 1
54546 48312 48436 1
54547 48314 48313 1
54548 48313 48319 1
54549 48315 48314 1
54550 48314 48316 1
54551 48315 48325 1
54552 48317 48316 1
54553 48318 48317 1
54554 48317 48323 1
54555 48317 48437 1
54556 48319 48318 1
54557 48318 48320 1
54558 48318 48438 1
54559 48321 48320 1
54560 48320 48439 1
54561 48320 48440 1
54562 48322 48321 1
54563 48321 48441 1
54564 48321 48442 1
54565 48323 48322 1
54566 48322 48443 1
54567 48322 48444 1
54568 48323 48445 1
54569 48323 48446 1
54570 48325 48324 1
54571 48324 48328 1
54572 48325 48447 1
54573 48327 48326 1
54574 48326 48329 1
54575 48328 48327 1
54576 48327 48332 1
54577 48328 48448 1
54578 48330 48329 1
54579 48329 48334 1
54580 48331 48330 1
54581 48330 48335 1
54582 48331 48449 1
54583 48333 48332 1
54584 48334 48333 1
54585 48333 48344 1
54586 48334 48337 1
54587 48336 48335 1
54588 48335 48341 1
54589 48335 48450 1
54590 48337 48336 1
54591 48336 48338 1
54592 48336 48451 1
54593 48337 48342 1
54594 48339 48338 1
54595 48338 48345 1
54596 48338 48452 1
54597 48340 48339 1
54598 48339 48453 1
54599 48339 48454 1
54600 48341 48340 1
54601 48340 48455 1
54602 48340 48456 1
54603 48341 48457 1
54604 48341 48458 1
54605 48343 48342 1
54606 48342 48346 1
54607 48344 48343 1
54608 48343 48354 1
54609 48344 48351 1
54610 48345 48346 1
54611 48345 48369 1
54612 48346 48365 1
54613 48347 48348 1
54614 48347 48349 1
54615 48347 48459 1
54616 48348 48460 1
54617 48348 48461 1
54618 48348 48462 1
54619 48349 48463 1
54620 48349 48464 1
54621 48349 48465 1
54622 48350 48466 1
54623 48352 48351 1
54624 48351 48467 1
54625 48353 48352 1
54626 48352 48468 1
54627 48354 48353 1
54628 48353 48358 1
54629 48354 48355 1
54630 48356 48355 1
54631 48355 48365 1
54632 48357 48356 1
54633 48356 48362 1
54634 48358 48357 1
54635 48357 48359 1
54636 48358 48469 1
54637 48360 48359 1
54638 48359 48470 1
54639 48361 48360 1
54640 48360 48471 1
54641 48362 48361 1
54642 48361 48368 1
54643 48362 48363 1
54644 48364 48363 1
54645 48363 48366 1
54646 48365 48364 1
54647 48364 48370 1
54648 48367 48366 1
54649 48366 48371 1
54650 48368 48367 1
54651 48367 48472 1
54652 48368 48473 1
54653 48370 48369 1
54654 48369 48474 1
54655 48370 48372 1
54656 48372 48371 1
54657 48371 48376 1
54658 48372 48373 1
54659 48374 48373 1
54660 48373 48475 1
54661 48373 48476 1
54662 48375 48374 1
54663 48374 48477 1
54664 48374 48478 1
54665 48376 48375 1
54666 48375 48479 1
54667 48375 48480 1
54668 48376 48377 2
54669 48481 48482 1
54670 48481 48486 1
54671 48481 48628 1
54672 48481 48629 1
54673 48483 48482 1
54674 48482 48630 1
54675 48482 48631 1
54676 48484 48483 1
54677 48483 48490 1
54678 48483 48632 1
54679 48485 48484 1
54680 48484 48487 1
54681 48484 48633 1
54682 48486 48485 1
54683 48485 48634 1
54684 48485 48635 1
54685 48488 48487 1
54686 48487 48494 1
54687 48487 48636 1
54688 48489 48488 1
54689 48488 48491 1
54690 48488 48637 1
54691 48490 48489 1
54692 48489 48638 1
54693 48489 48639 1
54694 48490 48640 1
54695 48490 48641 1
54696 48492 48491 1
54697 48493 48492 1
54698 48492 48498 1
54699 48492 48642 1
54700 48494 48493 1
54701 48493 48495 1
54702 48493 48643 1
54703 48494 48644 1
54704 48494 48645 1
54705 48496 48495 1
54706 48495 48505 2
54707 48497 48496 1
54708 48496 48502 1
54709 48498 48497 1
54710 48497 48499 1
54711 48498 48510 1
54712 48498 48646 1
54713 48500 48499 1
54714 48499 48512 1
54715 48501 48500 1
54716 48500 48509 1
54717 48502 48501 1
54718 48501 48506 1
54719 48502 48503 1
54720 48504 48503 1
54721 48503 48647 1
54722 48503 48648 1
54723 48505 48504 1
54724 48504 48649 1
54725 48504 48650 1
54726 48505 48651 1
54727 48507 48506 1
54728 48508 48507 1
54729 48507 48543 1
54730 48509 48508 1
54731 48508 48527 1
54732 48509 48525 1
54733 48511 48510 1
54734 48510 48516 2
54735 48512 48511 1
54736 48511 48513 1
54737 48511 48652 1
54738 48512 48526 1
54739 48514 48513 2
54740 48513 48520 1
54741 48515 48514 1
54742 48514 48517 1
54743 48516 48515 1
54744 48515 48653 1
54745 48515 48654 1
54746 48516 48655 1
54747 48518 48517 1
54748 48517 48656 1
54749 48517 48657 1
54750 48519 48518 1
54751 48518 48658 1
54752 48518 48659 1
54753 48520 48519 2
54754 48519 48524 1
54755 48520 48521 1
54756 48522 48521 1
54757 48521 48660 1
54758 48521 48661 1
54759 48523 48522 1
54760 48522 48597 1
54761 48522 48662 1
54762 48524 48523 1
54763 48523 48663 1
54764 48523 48664 1
54765 48524 48665 1
54766 48524 48666 1
54767 48526 48525 1
54768 48525 48529 1
54769 48526 48667 1
54770 48528 48527 1
54771 48527 48533 1
54772 48529 48528 1
54773 48528 48530 1
54774 48531 48530 1
54775 48530 48668 1
54776 48532 48531 1
54777 48531 48537 1
54778 48533 48532 1
54779 48532 48534 1
54780 48533 48542 1
54781 48535 48534 1
54782 48534 48544 1
54783 48536 48535 1
54784 48535 48541 1
54785 48537 48536 1
54786 48536 48538 1
54787 48537 48669 1
54788 48539 48538 1
54789 48538 48554 1
54790 48540 48539 1
54791 48539 48551 1
54792 48541 48540 1
54793 48540 48548 1
54794 48541 48546 1
54795 48543 48542 1
54796 48542 48545 1
54797 48543 48670 1
54798 48545 48544 1
54799 48544 48547 1
54800 48545 48563 1
54801 48547 48546 1
54802 48546 48550 1
54803 48547 48565 1
54804 48549 48548 1
54805 48548 48581 1
54806 48550 48549 1
54807 48549 48576 1
54808 48550 48574 1
54809 48552 48551 1
54810 48553 48552 1
54811 48552 48558 1
54812 48552 48671 1
54813 48554 48553 1
54814 48553 48555 1
54815 48553 48672 1
54816 48554 48600 1
54817 48554 48673 1
54818 48556 48555 1
54819 48555 48674 1
54820 48555 48675 1
54821 48557 48556 1
54822 48556 48676 1
54823 48556 48677 1
54824 48558 48557 1
54825 48557 48562 1
54826 48557 48678 1
54827 48558 48559 1
54828 48558 48679 1
54829 48560 48559 1
54830 48559 48680 1
54831 48559 48681 1
54832 48561 48560 1
54833 48560 48682 1
54834 48560 48683 1
54835 48562 48561 1
54836 48561 48684 1
54837 48561 48685 1
54838 48562 48686 1
54839 48564 48563 1
54840 48563 48569 1
54841 48565 48564 1
54842 48564 48566 1
54843 48565 48575 1
54844 48567 48566 1
54845 48568 48567 1
54846 48567 48573 1
54847 48567 48687 1
54848 48569 48568 1
54849 48568 48570 1
54850 48568 48688 1
54851 48571 48570 1
54852 48570 48689 1
54853 48570 48690 1
54854 48572 48571 1
54855 48571 48691 1
54856 48571 48692 1
54857 48573 48572 1
54858 48572 48693 1
54859 48572 48694 1
54860 48573 48695 1
54861 48573 48696 1
54862 48575 48574 1
54863 48574 48578 1
54864 48575 48697 1
54865 48577 48576 1
54866 48576 48579 1
54867 48578 48577 1
54868 48577 48582 1
54869 48578 48698 1
54870 48580 48579 1
54871 48579 48584 1
54872 48581 48580 1
54873 48580 48585 1
54874 48581 48699 1
54875 48583 48582 1
54876 48584 48583 1
54877 48583 48594 1
54878 48584 48587 1
54879 48586 48585 1
54880 48585 48591 1
54881 48585 48700 1
54882 48587 48586 1
54883 48586 48588 1
54884 48586 48701 1
54885 48587 48592 1
54886 48589 48588 1
54887 48588 48595 1
54888 48588 48702 1
54889 48590 48589 1
54890 48589 48703 1
54891 48589 48704 1
54892 48591 48590 1
54893 48590 48705 1
54894 48590 48706 1
54895 48591 48707 1
54896 48591 48708 1
54897 48593 48592 1
54898 48592 48596 1
54899 48594 48593 1
54900 48593 48604 1
54901 48594 48601 1
54902 48595 48596 1
54903 48595 48619 1
54904 48596 48615 1
54905 48597 48598 1
54906 48597 48599 1
54907 48597 48709 1
54908 48598 48710 1
54909 48598 48711 1
54910 48598 48712 1
54911 48599 48713 1
54912 48599 48714 1
54913 48599 48715 1
54914 48600 48716 1
54915 48602 48601 1
54916 48601 48717 1
54917 48603 48602 1
54918 48602 48718 1
54919 48604 48603 1
54920 48603 48608 1
54921 48604 48605 1
54922 48606 48605 1
54923 48605 48615 1
54924 48607 48606 1
54925 48606 48612 1
54926 48608 48607 1
54927 48607 48609 1
54928 48608 48719 1
54929 48610 48609 1
54930 48609 48720 1
54931 48611 48610 1
54932 48610 48721 1
54933 48612 48611 1
54934 48611 48618 1
54935 48612 48613 1
54936 48614 48613 1
54937 48613 48616 1
54938 48615 48614 1
54939 48614 48620 1
54940 48617 48616 1
54941 48616 48621 1
54942 48618 48617 1
54943 48617 48722 1
54944 48618 48723 1
54945 48620 48619 1
54946 48619 48724 1
54947 48620 48622 1
54948 48622 48621 1
54949 48621 48626 1
54950 48622 48623 1
54951 48624 48623 1
54952 48623 48725 1
54953 48623 48726 1
54954 48625 48624 1
54955 48624 48727 1
54956 48624 48728 1
54957 48626 48625 1
54958 48625 48729 1
54959 48625 48730 1
54960 48626 48627 2
54961 48731 48732 1
54962 48731 48736 1
54963 48731 48878 1
54964 48731 48879 1
54965 48733 48732 1
54966 48732 48880 1
54967 48732 48881 1
54968 48734 48733 1
54969 48733 48740 1
54970 48733 48882 1
54971 48735 48734 1
54972 48734 48737 1
54973 48734 48883 1
54974 48736 48735 1
54975 48735 48884 1
54976 48735 48885 1
54977 48738 48737 1
54978 48737 48744 1
54979 48737 48886 1
54980 48739 48738 1
54981 48738 48741 1
54982 48738 48887 1
54983 48740 48739 1
54984 48739 48888 1
54985 48739 48889 1
54986 48740 48890 1
54987 48740 48891 1
54988 48742 48741 1
54989 48743 48742 1
54990 48742 48748 1
54991 48742 48892 1
54992 48744 48743 1
54993 48743 48745 1
54994 48743 48893 1
54995 48744 48894 1
54996 48744 48895 1
54997 48746 48745 1
54998 48745 48755 2
54999 48747 48746 1
55000 48746 48752 1
55001 48748 48747 1
55002 48747 48749 1
55003 48748 48760 1
55004 48748 48896 1
55005 48750 48749 1
55006 48749 48762 1
55007 48751 48750 1
55008 48750 48759 1
55009 48752 48751 1
55010 48751 48756 1
55011 48752 48753 1
55012 48754 48753 1
55013 48753 48897 1
55014 48753 48898 1
55015 48755 48754 1
55016 48754 48899 1
55017 48754 48900 1
55018 48755 48901 1
55019 48757 48756 1
55020 48758 48757 1
55021 48757 48793 1
55022 48759 48758 1
55023 48758 48777 1
55024 48759 48775 1
55025 48761 48760 1
55026 48760 48766 2
55027 48762 48761 1
55028 48761 48763 1
55029 48761 48902 1
55030 48762 48776 1
55031 48764 48763 2
55032 48763 48770 1
55033 48765 48764 1
55034 48764 48767 1
55035 48766 48765 1
55036 48765 48903 1
55037 48765 48904 1
55038 48766 48905 1
55039 48768 48767 1
55040 48767 48906 1
55041 48767 48907 1
55042 48769 48768 1
55043 48768 48908 1
55044 48768 48909 1
55045 48770 48769 2
55046 48769 48774 1
55047 48770 48771 1
55048 48772 48771 1
55049 48771 48910 1
55050 48771 48911 1
55051 48773 48772 1
55052 48772 48847 1
55053 48772 48912 1
55054 48774 48773 1
55055 48773 48913 1
55056 48773 48914 1
55057 48774 48915 1
55058 48774 48916 1
55059 48776 48775 1
55060 48775 48779 1
55061 48776 48917 1
55062 48778 48777 1
55063 48777 48783 1
55064 48779 48778 1
55065 48778 48780 1
55066 48781 48780 1
55067 48780 48918 1
55068 48782 48781 1
55069 48781 48787 1
55070 48783 48782 1
55071 48782 48784 1
55072 48783 48792 1
55073 48785 48784 1
55074 48784 48794 1
55075 48786 48785 1
55076 48785 48791 1
55077 48787 48786 1
55078 48786 48788 1
55079 48787 48919 1
55080 48789 48788 1
55081 48788 48804 1
55082 48790 48789 1
55083 48789 48801 1
55084 48791 48790 1
55085 48790 48798 1
55086 48791 48796 1
55087 48793 48792 1
55088 48792 48795 1
55089 48793 48920 1
55090 48795 48794 1
55091 48794 48797 1
55092 48795 48813 1
55093 48797 48796 1
55094 48796 48800 1
55095 48797 48815 1
55096 48799 48798 1
55097 48798 48831 1
55098 48800 48799 1
55099 48799 48826 1
55100 48800 48824 1
55101 48802 48801 1
55102 48803 48802 1
55103 48802 48808 1
55104 48802 48921 1
55105 48804 48803 1
55106 48803 48805 1
55107 48803 48922 1
55108 48804 48850 1
55109 48804 48923 1
55110 48806 48805 1
55111 48805 48924 1
55112 48805 48925 1
55113 48807 48806 1
55114 48806 48926 1
55115 48806 48927 1
55116 48808 48807 1
55117 48807 48812 1
55118 48807 48928 1
55119 48808 48809 1
55120 48808 48929 1
55121 48810 48809 1
55122 48809 48930 1
55123 48809 48931 1
55124 48811 48810 1
55125 48810 48932 1
55126 48810 48933 1
55127 48812 48811 1
55128 48811 48934 1
55129 48811 48935 1
55130 48812 48936 1
55131 48814 48813 1
55132 48813 48819 1
55133 48815 48814 1
55134 48814 48816 1
55135 48815 48825 1
55136 48817 48816 1
55137 48818 48817 1
55138 48817 48823 1
55139 48817 48937 1
55140 48819 48818 1
55141 48818 48820 1
55142 48818 48938 1
55143 48821 48820 1
55144 48820 48939 1
55145 48820 48940 1
55146 48822 48821 1
55147 48821 48941 1
55148 48821 48942 1
55149 48823 48822 1
55150 48822 48943 1
55151 48822 48944 1
55152 48823 48945 1
55153 48823 48946 1
55154 48825 48824 1
55155 48824 48828 1
55156 48825 48947 1
55157 48827 48826 1
55158 48826 48829 1
55159 48828 48827 1
55160 48827 48832 1
55161 48828 48948 1
55162 48830 48829 1
55163 48829 48834 1
55164 48831 48830 1
55165 48830 48835 1
55166 48831 48949 1
55167 48833 48832 1
55168 48834 48833 1
55169 48833 48844 1
55170 48834 48837 1
55171 48836 48835 1
55172 48835 48841 1
55173 48835 48950 1
55174 48837 48836 1
55175 48836 48838 1
55176 48836 48951 1
55177 48837 48842 1
55178 48839 48838 1
55179 48838 48845 1
55180 48838 48952 1
55181 48840 48839 1
55182 48839 48953 1
55183 48839 48954 1
55184 48841 48840 1
55185 48840 48955 1
55186 48840 48956 1
55187 48841 48957 1
55188 48841 48958 1
55189 48843 48842 1
55190 48842 48846 1
55191 48844 48843 1
55192 48843 48854 1
55193 48844 48851 1
55194 48845 48846 1
55195 48845 48869 1
55196 48846 48865 1
55197 48847 48848 1
55198 48847 48849 1
55199 48847 48959 1
55200 48848 48960 1
55201 48848 48961 1
55202 48848 48962 1
55203 48849 48963 1
55204 48849 48964 1
55205 48849 48965 1
55206 48850 48966 1
55207 48852 48851 1
55208 48851 48967 1
55209 48853 48852 1
55210 48852 48968 1
55211 48854 48853 1
55212 48853 48858 1
55213 48854 48855 1
55214 48856 48855 1
55215 48855 48865 1
55216 48857 48856 1
55217 48856 48862 1
55218 48858 48857 1
55219 48857 48859 1
55220 48858 48969 1
55221 48860 48859 1
55222 48859 48970 1
55223 48861 48860 1
55224 48860 48971 1
55225 48862 48861 1
55226 48861 48868 1
55227 48862 48863 1
55228 48864 48863 1
55229 48863 48866 1
55230 48865 48864 1
55231 48864 48870 1
55232 48867 48866 1
55233 48866 48871 1
55234 48868 48867 1
55235 48867 48972 1
55236 48868 48973 1
55237 48870 48869 1
55238 48869 48974 1
55239 48870 48872 1
55240 48872 48871 1
55241 48871 48876 1
55242 48872 48873 1
55243 48874 48873 1
55244 48873 48975 1
55245 48873 48976 1
55246 48875 48874 1
55247 48874 48977 1
55248 48874 48978 1
55249 48876 48875 1
55250 48875 48979 1
55251 48875 48980 1
55252 48876 48877 2
55253 48981 48982 1
55254 48981 48986 1
55255 48981 49128 1
55256 48981 49129 1
55257 48983 48982 1
55258 48982 49130 1
55259 48982 49131 1
55260 48984 48983 1
55261 48983 48990 1
55262 48983 49132 1
55263 48985 48984 1
55264 48984 48987 1
55265 48984 49133 1
55266 48986 48985 1
55267 48985 49134 1
55268 48985 49135 1
55269 48988 48987 1
55270 48987 48994 1
55271 48987 49136 1
55272 48989 48988 1
55273 48988 48991 1
55274 48988 49137 1
55275 48990 48989 1
55276 48989 49138 1
55277 48989 49139 1
55278 48990 49140 1
55279 48990 49141 1
55280 48992 48991 1
55281 48993 48992 1
55282 48992 48998 1
55283 48992 49142 1
55284 48994 48993 1
55285 48993 48995 1
55286 48993 49143 1
55287 48994 49144 1
55288 48994 49145 1
55289 48996 48995 1
55290 48995 49005 2
55291 48997 48996 1
55292 48996 49002 1
55293 48998 48997 1
55294 48997 48999 1
55295 48998 49010 1
55296 48998 49146 1
55297 49000 48999 1
55298 48999 49012 1
55299 49001 49000 1
55300 49000 49009 1
55301 49002 49001 1
55302 49001 49006 1
55303 49002 49003 1
55304 49004 49003 1
55305 49003 49147 1
55306 49003 49148 1
55307 49005 49004 1
55308 49004 49149 1
55309 49004 49150 1
55310 49005 49151 1
55311 49007 49006 1
55312 49008 49007 1
55313 49007 49043 1
55314 49009 49008 1
55315 49008 49027 1
55316 49009 49025 1
55317 49011 49010 1
55318 49010 49016 2
55319 49012 49011 1
55320 49011 49013 1
55321 49011 49152 1
55322 49012 49026 1
55323 49014 49013 2
55324 49013 49020 1
55325 49015 49014 1
55326 49014 49017 1
55327 49016 49015 1
55328 49015 49153 1
55329 49015 49154 1
55330 49016 49155 1
55331 49018 49017 1
55332 49017 49156 1
55333 49017 49157 1
55334 49019 49018 1
55335 49018 49158 1
55336 49018 49159 1
55337 49020 49019 2
55338 49019 49024 1
55339 49020 49021 1
55340 49022 49021 1
55341 49021 49160 1
55342 49021 49161 1
55343 49023 49022 1
55344 49022 49097 1
55345 49022 49162 1
55346 49024 49023 1
55347 49023 49163 1
55348 49023 49164 1
55349 49024 49165 1
55350 49024 49166 1
55351 49026 49025 1
55352 49025 49029 1
55353 49026 49167 1
55354 49028 49027 1
55355 49027 49033 1
55356 49029 49028 1
55357 49028 49030 1
55358 49031 49030 1
55359 49030 49168 1
55360 49032 49031 1
55361 49031 49037 1
55362 49033 49032 1
55363 49032 49034 1
55364 49033 49042 1
55365 49035 49034 1
55366 49034 49044 1
55367 49036 49035 1
55368 49035 49041 1
55369 49037 49036 1
55370 49036 49038 1
55371 49037 49169 1
55372 49039 49038 1
55373 49038 49054 1
55374 49040 49039 1
55375 49039 49051 1
55376 49041 49040 1
55377 49040 49048 1
55378 49041 49046 1
55379 49043 49042 1
55380 49042 49045 1
55381 49043 49170 1
55382 49045 49044 1
55383 49044 49047 1
55384 49045 49063 1
55385 49047 49046 1
55386 49046 49050 1
55387 49047 49065 1
55388 49049 49048 1
55389 49048 49081 1
55390 49050 49049 1
55391 49049 49076 1
55392 49050 49074 1
55393 49052 49051 1
55394 49053 49052 1
55395 49052 49058 1
55396 49052 49171 1
55397 49054 49053 1
55398 49053 49055 1
55399 49053 49172 1
55400 49054 49100 1
55401 49054 49173 1
55402 49056 49055 1
55403 49055 49174 1
55404 49055 49175 1
55405 49057 49056 1
55406 49056 49176 1
55407 49056 49177 1
55408 49058 49057 1
55409 49057 49062 1
55410 49057 49178 1
55411 49058 49059 1
55412 49058 49179 1
55413 49060 49059 1
55414 49059 49180 1
55415 49059 49181 1
55416 49061 49060 1
55417 49060 49182 1
55418 49060 49183 1
55419 49062 49061 1
55420 49061 49184 1
55421 49061 49185 1
55422 49062 49186 1
55423 49064 49063 1
55424 49063 49069 1
55425 49065 49064 1
55426 49064 49066 1
55427 49065 49075 1
55428 49067 49066 1
55429 49068 49067 1
55430 49067 49073 1
55431 49067 49187 1
55432 49069 49068 1
55433 49068 49070 1
55434 49068 49188 1
55435 49071 49070 1
55436 49070 49189 1
55437 49070 49190 1
55438 49072 49071 1
55439 49071 49191 1
55440 49071 49192 1
55441 49073 49072 1
55442 49072 49193 1
55443 49072 49194 1
55444 49073 49195 1
55445 49073 49196 1
55446 49075 49074 1
55447 49074 49078 1
55448 49075 49197 1
55449 49077 49076 1
55450 49076 49079 1
55451 49078 49077 1
55452 49077 49082 1
55453 49078 49198 1
55454 49080 49079 1
55455 49079 49084 1
55456 49081 49080 1
55457 49080 49085 1
55458 49081 49199 1
55459 49083 49082 1
55460 49084 49083 1
55461 49083 49094 1
55462 49084 49087 1
55463 49086 49085 1
55464 49085 49091 1
55465 49085 49200 1
55466 49087 49086 1
55467 49086 49088 1
55468 49086 49201 1
55469 49087 49092 1
55470 49089 49088 1
55471 49088 49095 1
55472 49088 49202 1
55473 49090 49089 1
55474 49089 49203 1
55475 49089 49204 1
55476 49091 49090 1
55477 49090 49205 1
55478 49090 49206 1
55479 49091 49207 1
55480 49091 49208 1
55481 49093 49092 1
55482 49092 49096 1
55483 49094 49093 1
55484 49093 49104 1
55485 49094 49101 1
55486 49095 49096 1
55487 49095 49119 1
55488 49096 49115 1
55489 49097 49098 1
55490 49097 49099 1
55491 49097 49209 1
55492 49098 49210 1
55493 49098 49211 1
55494 49098 49212 1
55495 49099 49213 1
55496 49099 49214 1
55497 49099 49215 1
55498 49100 49216 1
55499 49102 49101 1
55500 49101 49217 1
55501 49103 49102 1
55502 49102 49218 1
55503 49104 49103 1
55504 49103 49108 1
55505 49104 49105 1
55506 49106 49105 1
55507 49105 49115 1
55508 49107 49106 1
55509 49106 49112 1
55510 49108 49107 1
55511 49107 49109 1
55512 49108 49219 1
55513 49110 49109 1
55514 49109 49220 1
55515 49111 49110 1
55516 49110 49221 1
55517 49112 49111 1
55518 49111 49118 1
55519 49112 49113 1
55520 49114 49113 1
55521 49113 49116 1
55522 49115 49114 1
55523 49114 49120 1
55524 49117 49116 1
55525 49116 49121 1
55526 49118 49117 1
55527 49117 49222 1
55528 49118 49223 1
55529 49120 49119 1
55530 49119 49224 1
55531 49120 49122 1
55532 49122 49121 1
55533 49121 49126 1
55534 49122 49123 1
55535 49124 49123 1
55536 49123 49225 1
55537 49123 49226 1
55538 49125 49124 1
55539 49124 49227 1
55540 49124 49228 1
55541 49126 49125 1
55542 49125 49229 1
55543 49125 49230 1
55544 49126 49127 2
55545 49231 49232 1
55546 49231 49236 1
55547 49231 49378 1
55548 49231 49379 1
55549 49233 49232 1
55550 49232 49380 1
55551 49232 49381 1
55552 49234 49233 1
55553 49233 49240 1
55554 49233 49382 1
55555 49235 49234 1
55556 49234 49237 1
55557 49234 49383 1
55558 49236 49235 1
55559 49235 49384 1
55560 49235 49385 1
55561 49238 49237 1
55562 49237 49244 1
55563 49237 49386 1
55564 49239 49238 1
55565 49238 49241 1
55566 49238 49387 1
55567 49240 49239 1
55568 49239 49388 1
55569 49239 49389 1
55570 49240 49390 1
55571 49240 49391 1
55572 49242 49241 1
55573 49243 49242 1
55574 49242 49248 1
55575 49242 49392 1
55576 49244 49243 1
55577 49243 49245 1
55578 49243 49393 1
55579 49244 49394 1
55580 49244 49395 1
55581 49246 49245 1
55582 49245 49255 2
55583 49247 49246 1
55584 49246 49252 1
55585 49248 49247 1
55586 49247 49249 1
55587 49248 49260 1
55588 49248 49396 1
55589 49250 49249 1
55590 49249 49262 1
55591 49251 49250 1
55592 49250 49259 1
55593 49252 49251 1
55594 49251 49256 1
55595 49252 49253 1
55596 49254 49253 1
55597 49253 49397 1
55598 49253 49398 1
55599 49255 49254 1
55600 49254 49399 1
55601 49254 49400 1
55602 49255 49401 1
55603 49257 49256 1
55604 49258 49257 1
55605 49257 49293 1
55606 49259 49258 1
55607 49258 49277 1
55608 49259 49275 1
55609 49261 49260 1
55610 49260 49266 2
55611 49262 49261 1
55612 49261 49263 1
55613 49261 49402 1
55614 49262 49276 1
55615 49264 49263 2
55616 49263 49270 1
55617 49265 49264 1
55618 49264 49267 1
55619 49266 49265 1
55620 49265 49403 1
55621 49265 49404 1
55622 49266 49405 1
55623 49268 49267 1
55624 49267 49406 1
55625 49267 49407 1
55626 49269 49268 1
55627 49268 49408 1
55628 49268 49409 1
55629 49270 49269 2
55630 49269 49274 1
55631 49270 49271 1
55632 49272 49271 1
55633 49271 49410 1
55634 49271 49411 1
55635 49273 49272 1
55636 49272 49347 1
55637 49272 49412 1
55638 49274 49273 1
55639 49273 49413 1
55640 49273 49414 1
55641 49274 49415 1
55642 49274 49416 1
55643 49276 49275 1
55644 49275 49279 1
55645 49276 49417 1
55646 49278 49277 1
55647 49277 49283 1
55648 49279 49278 1
55649 49278 49280 1
55650 49281 49280 1
55651 49280 49418 1
55652 49282 49281 1
55653 49281 49287 1
55654 49283 49282 1
55655 49282 49284 1
55656 49283 49292 1
55657 49285 49284 1
55658 49284 49294 1
55659 49286 49285 1
55660 49285 49291 1
55661 49287 49286 1
55662 49286 49288 1
55663 49287 49419 1
55664 49289 49288 1
55665 49288 49304 1
55666 49290 49289 1
55667 49289 49301 1
55668 49291 49290 1
55669 49290 49298 1
55670 49291 49296 1
55671 49293 49292 1
55672 49292 49295 1
55673 49293 49420 1
55674 49295 49294 1
55675 49294 49297 1
55676 49295 49313 1
55677 49297 49296 1
55678 49296 49300 1
55679 49297 49315 1
55680 49299 49298 1
55681 49298 49331 1
55682 49300 49299 1
55683 49299 49326 1
55684 49300 49324 1
55685 49302 49301 1
55686 49303 49302 1
55687 49302 49308 1
55688 49302 49421 1
55689 49304 49303 1
55690 49303 49305 1
55691 49303 49422 1
55692 49304 49350 1
55693 49304 49423 1
55694 49306 49305 1
55695 49305 49424 1
55696 49305 49425 1
55697 49307 49306 1
55698 49306 49426 1
55699 49306 49427 1
55700 49308 49307 1
55701 49307 49312 1
55702 49307 49428 1
55703 49308 49309 1
55704 49308 49429 1
55705 49310 49309 1
55706 49309 49430 1
55707 49309 49431 1
55708 49311 49310 1
55709 49310 49432 1
55710 49310 49433 1
55711 49312 49311 1
55712 49311 49434 1
55713 49311 49435 1
55714 49312 49436 1
55715 49314 49313 1
55716 49313 49319 1
55717 49315 49314 1
55718 49314 49316 1
55719 49315 49325 1
55720 49317 49316 1
55721 49318 49317 1
55722 49317 49323 1
55723 49317 49437 1
55724 49319 49318 1
55725 49318 49320 1
55726 49318 49438 1
55727 49321 49320 1
55728 49320 49439 1
55729 49320 49440 1
55730 49322 49321 1
55731 49321 49441 1
55732 49321 49442 1
55733 49323 49322 1
55734 49322 49443 1
55735 49322 49444 1
55736 49323 49445 1
55737 49323 49446 1
55738 49325 49324 1
55739 49324 49328 1
55740 49325 49447 1
55741 49327 49326 1
55742 49326 49329 1
55743 49328 49327 1
55744 49327 49332 1
55745 49328 49448 1
55746 49330 49329 1
55747 49329 49334 1
55748 49331 49330 1
55749 49330 49335 1
55750 49331 49449 1
55751 49333 49332 1
55752 49334 49333 1
55753 49333 49344 1
55754 49334 49337 1
55755 49336 49335 1
55756 49335 49341 1
55757 49335 49450 1
55758 49337 49336 1
55759 49336 49338 1
55760 49336 49451 1
55761 49337 49342 1
55762 49339 49338 1
55763 49338 49345 1
55764 49338 49452 1
55765 49340 49339 1
55766 49339 49453 1
55767 49339 49454 1
55768 49341 49340 1
55769 49340 49455 1
55770 49340 49456 1
55771 49341 49457 1
55772 49341 49458 1
55773 49343 49342 1
55774 49342 49346 1
55775 49344 49343 1
55776 49343 49354 1
55777 49344 49351 1
55778 49345 49346 1
55779 49345 49369 1
55780 49346 49365 1
55781 49347 49348 1
55782 49347 49349 1
55783 49347 49459 1
55784 49348 49460 1
55785 49348 49461 1
55786 49348 49462 1
55787 49349 49463 1
55788 49349 49464 1
55789 49349 49465 1
55790 49350 49466 1
55791 49352 49351 1
55792 49351 49467 1
55793 49353 49352 1
55794 49352 49468 1
55795 49354 49353 1
55796 49353 49358 1
55797 49354 49355 1
55798 49356 49355 1
55799 49355 49365 1
55800 49357 49356 1
55801 49356 49362 1
55802 49358 49357 1
55803 49357 49359 1
55804 49358 49469 1
55805 49360 49359 1
55806 49359 49470 1
55807 49361 49360 1
55808 49360 49471 1
55809 49362 49361 1
55810 49361 49368 1
55811 49362 49363 1
55812 49364 49363 1
55813 49363 49366 1
55814 49365 49364 1
55815 49364 49370 1
55816 49367 49366 1
55817 49366 49371 1
55818 49368 49367 1
55819 49367 49472 1
55820 49368 49473 1
55821 49370 49369 1
55822 49369 49474 1
55823 49370 49372 1
55824 49372 49371 1
55825 49371 49376 1
55826 49372 49373 1
55827 49374 49373 1
55828 49373 49475 1
55829 49373 49476 1
55830 49375 49374 1
55831 49374 49477 1
55832 49374 49478 1
55833 49376 49375 1
55834 49375 49479 1
55835 49375 49480 1
55836 49376 49377 2
55837 49481 49482 1
55838 49481 49486 1
55839 49481 49628 1
55840 49481 49629 1
55841 49483 49482 1
55842 49482 49630 1
55843 49482 49631 1
55844 49484 49483 1
55845 49483 49490 1
55846 49483 49632 1
55847 49485 49484 1
55848 49484 49487 1
55849 49484 49633 1
55850 49486 49485 1
55851 49485 49634 1
55852 49485 49635 1
55853 49488 49487 1
55854 49487 49494 1
55855 49487 49636 1
55856 49489 49488 1
55857 49488 49491 1
55858 49488 49637 1
55859 49490 49489 1
55860 49489 49638 1
55861 49489 49639 1
55862 49490 49640 1
55863 49490 49641 1
55864 49492 49491 1
55865 49493 49492 1
55866 49492 49498 1
55867 49492 49642 1
55868 49494 49493 1
55869 49493 49495 1
55870 49493 49643 1
55871 49494 49644 1
55872 49494 49645 1
55873 49496 49495 1
55874 49495 49505 2
55875 49497 49496 1
55876 49496 49502 1
55877 49498 49497 1
55878 49497 49499 1
55879 49498 49510 1
55880 49498 49646 1
55881 49500 49499 1
55882 49499 49512 1
55883 49501 49500 1
55884 49500 49509 1
55885 49502 49501 1
55886 49501 49506 1
55887 49502 49503 1
55888 49504 49503 1
55889 49503 49647 1
55890 49503 49648 1
55891 49505 49504 1
55892 49504 49649 1
55893 49504 49650 1
55894 49505 49651 1
55895 49507 49506 1
55896 49508 49507 1
55897 49507 49543 1
55898 49509 49508 1
55899 49508 49527 1
55900 49509 49525 1
55901 49511 49510 1
55902 49510 49516 2
55903 49512 49511 1
55904 49511 49513 1
55905 49511 49652 1
55906 49512 49526 1
55907 49514 49513 2
55908 49513 49520 1
55909 49515 49514 1
55910 49514 49517 1
55911 49516 49515 1
55912 49515 49653 1
55913 49515 49654 1
55914 49516 49655 1
55915 49518 49517 1
55916 49517 49656 1
55917 49517 49657 1
55918 49519 49518 1
55919 49518 49658 1
55920 49518 49659 1
55921 49520 49519 2
55922 49519 49524 1
55923 49520 49521 1
55924 49522 49521 1
55925 49521 49660 1
55926 49521 49661 1
55927 49523 49522 1
55928 49522 49597 1
55929 49522 49662 1
55930 49524 49523 1
55931 49523 49663 1
55932 49523 49664 1
55933 49524 49665 1
55934 49524 49666 1
55935 49526 49525 1
55936 49525 49529 1
55937 49526 49667 1
55938 49528 49527 1
55939 49527 49533 1
55940 49529 49528 1
55941 49528 49530 1
55942 49531 49530 1
55943 49530 49668 1
55944 49532 49531 1
55945 49531 49537 1
55946 49533 49532 1
55947 49532 49534 1
55948 49533 49542 1
55949 49535 49534 1
55950 49534 49544 1
55951 49536 49535 1
55952 49535 49541 1
55953 49537 49536 1
55954 49536 49538 1
55955 49537 49669 1
55956 49539 49538 1
55957 49538 49554 1
55958 49540 49539 1
55959 49539 49551 1
55960 49541 49540 1
55961 49540 49548 1
55962 49541 49546 1
55963 49543 49542 1
55964 49542 49545 1
55965 49543 49670 1
55966 49545 49544 1
55967 49544 49547 1
55968 49545 49563 1
55969 49547 49546 1
55970 49546 49550 1
55971 49547 49565 1
55972 49549 49548 1
55973 49548 49581 1
55974 49550 49549 1
55975 49549 49576 1
55976 49550 49574 1
55977 49552 49551 1
55978 49553 49552 1
55979 49552 49558 1
55980 49552 49671 1
55981 49554 49553 1
55982 49553 49555 1
55983 49553 49672 1
55984 49554 49600 1
55985 49554 49673 1
55986 49556 49555 1
55987 49555 49674 1
55988 49555 49675 1
55989 49557 49556 1
55990 49556 49676 1
55991 49556 49677 1
55992 49558 49557 1
55993 49557 49562 1
55994 49557 49678 1
55995 49558 49559 1
55996 49558 49679 1
55997 49560 49559 1
55998 49559 49680 1
55999 49559 49681 1
56000 49561 49560 1
56001 49560 49682 1
56002 49560 49683 1
56003 49562 49561 1
56004 49561 49684 1
56005 49561 49685 1
56006 49562 49686 1
56007 49564 49563 1
56008 49563 49569 1
56009 49565 49564 1
56010 49564 49566 1
56011 49565 49575 1
56012 49567 49566 1
56013 49568 49567 1
56014 49567 49573 1
56015 49567 49687 1
56016 49569 49568 1
56017 49568 49570 1
56018 49568 49688 1
56019 49571 49570 1
56020 49570 49689 1
56021 49570 49690 1
56022 49572 49571 1
56023 49571 49691 1
56024 49571 49692 1
56025 49573 49572 1
56026 49572 49693 1
56027 49572 49694 1
56028 49573 49695 1
56029 49573 49696 1
56030 49575 49574 1
56031 49574 49578 1
56032 49575 49697 1
56033 49577 49576 1
56034 49576 49579 1
56035 49578 49577 1
56036 49577 49582 1
56037 49578 49698 1
56038 49580 49579 1
56039 49579 49584 1
56040 49581 49580 1
56041 49580 49585 1
56042 49581 49699 1
56043 49583 49582 1
56044 49584 49583 1
56045 49583 49594 1
56046 49584 49587 1
56047 49586 49585 1
56048 49585 49591 1
56049 49585 49700 1
56050 49587 49586 1
56051 49586 49588 1
56052 49586 49701 1
56053 49587 49592 1
56054 49589 49588 1
56055 49588 49595 1
56056 49588 49702 1
56057 49590 49589 1
56058 49589 49703 1
56059 49589 49704 1
56060 49591 49590 1
56061 49590 49705 1
56062 49590 49706 1
56063 49591 49707 1
56064 49591 49708 1
56065 49593 49592 1
56066 49592 49596 1
56067 49594 49593 1
56068 49593 49604 1
56069 49594 49601 1
56070 49595 49596 1
56071 49595 49619 1
56072 49596 49615 1
56073 49597 49598 1
56074 49597 49599 1
56075 49597 49709 1
56076 49598 49710 1
56077 49598 49711 1
56078 49598 49712 1
56079 49599 49713 1
56080 49599 49714 1
56081 49599 49715 1
56082 49600 49716 1
56083 49602 49601 1
56084 49601 49717 1
56085 49603 49602 1
56086 49602 49718 1
56087 49604 49603 1
56088 49603 49608 1
56089 49604 49605 1
56090 49606 49605 1
56091 49605 49615 1
56092 49607 49606 1
56093 49606 49612 1
56094 49608 49607 1
56095 49607 49609 1
56096 49608 49719 1
56097 49610 49609 1
56098 49609 49720 1
56099 49611 49610 1
56100 49610 49721 1
56101 49612 49611 1
56102 49611 49618 1
56103 49612 49613 1
56104 49614 49613 1
56105 49613 49616 1
56106 49615 49614 1
56107 49614 49620 1
56108 49617 49616 1
56109 49616 49621 1
56110 49618 49617 1
56111 49617 49722 1
56112 49618 49723 1
56113 49620 49619 1
56114 49619 49724 1
56115 49620 49622 1
56116 49622 49621 1
56117 49621 49626 1
56118 49622 49623 1
56119 49624 49623 1
56120 49623 49725 1
56121 49623 49726 1
56122 49625 49624 1
56123 49624 49727 1
56124 49624 49728 1
56125 49626 49625 1
56126 49625 49729 1
56127 49625 49730 1
56128 49626 49627 2
56129 49731 49732 1
56130 49731 49736 1
56131 49731 49878 1
56132 49731 49879 1
56133 49733 49732 1
56134 49732 49880 1
56135 49732 49881 1
56136 49734 49733 1
56137 49733 49740 1
56138 49733 49882 1
56139 49735 49734 1
56140 49734 49737 1
56141 49734 49883 1
56142 49736 49735 1
56143 49735 49884 1
56144 49735 49885 1
56145 49738 49737 1
56146 49737 49744 1
56147 49737 49886 1
56148 49739 49738 1
56149 49738 49741 1
56150 49738 49887 1
56151 49740 49739 1
56152 49739 49888 1
56153 49739 49889 1
56154 49740 49890 1
56155 49740 49891 1
56156 49742 49741 1
56157 49743 49742 1
56158 49742 49748 1
56159 49742 49892 1
56160 49744 49743 1
56161 49743 49745 1
56162 49743 49893 1
56163 49744 49894 1
56164 49744 49895 1
56165 49746 49745 1
56166 49745 49755 2
56167 49747 49746 1
56168 49746 49752 1
56169 49748 49747 1
56170 49747 49749 1
56171 49748 49760 1
56172 49748 49896 1
56173 49750 49749 1
56174 49749 49762 1
56175 49751 49750 1
56176 49750 49759 1
56177 49752 49751 1
56178 49751 49756 1
56179 49752 49753 1
56180 49754 49753 1
56181 49753 49897 1
56182 49753 49898 1
56183 49755 49754 1
56184 49754 49899 1
56185 49754 49900 1
56186 49755 49901 1
56187 49757 49756 1
56188 49758 49757 1
56189 49757 49793 1
56190 49759 49758 1
56191 49758 49777 1
56192 49759 49775 1
56193 49761 49760 1
56194 49760 49766 2
56195 49762 49761 1
56196 49761 49763 1
56197 49761 49902 1
56198 49762 49776 1
56199 49764 49763 2
56200 49763 49770 1
56201 49765 49764 1
56202 49764 49767 1
56203 49766 49765 1
56204 49765 49903 1
56205 49765 49904 1
56206 49766 49905 1
56207 49768 49767 1
56208 49767 49906 1
56209 49767 49907 1
56210 49769 49768 1
56211 49768 49908 1
56212 49768 49909 1
56213 49770 49769 2
56214 49769 49774 1
56215 49770 49771 1
56216 49772 49771 1
56217 49771 49910 1
56218 49771 49911 1
56219 49773 49772 1
56220 49772 49847 1
56221 49772 49912 1
56222 49774 49773 1
56223 49773 49913 1
56224 49773 49914 1
56225 49774 49915 1
56226 49774 49916 1
56227 49776 49775 1
56228 49775 49779 1
56229 49776 49917 1
56230 49778 49777 1
56231 49777 49783 1
56232 49779 49778 1
56233 49778 49780 1
56234 49781 49780 1
56235 49780 49918 1
56236 49782 49781 1
56237 49781 49787 1
56238 49783 49782 1
56239 49782 49784 1
56240 49783 49792 1
56241 49785 49784 1
56242 49784 49794 1
56243 49786 49785 1
56244 49785 49791 1
56245 49787 49786 1
56246 49786 49788 1
56247 49787 49919 1
56248 49789 49788 1
56249 49788 49804 1
56250 49790 49789 1
56251 49789 49801 1
56252 49791 49790 1
56253 49790 49798 1
56254 49791 49796 1
56255 49793 49792 1
56256 49792 49795 1
56257 49793 49920 1
56258 49795 49794 1
56259 49794 49797 1
56260 49795 49813 1
56261 49797 49796 1
56262 49796 49800 1
56263 49797 49815 1
56264 49799 49798 1
56265 49798 49831 1
56266 49800 49799 1
56267 49799 49826 1
56268 49800 49824 1
56269 49802 49801 1
56270 49803 49802 1
56271 49802 49808 1
56272 49802 49921 1
56273 49804 49803 1
56274 49803 49805 1
56275 49803 49922 1
56276 49804 49850 1
56277 49804 49923 1
56278 49806 49805 1
56279 49805 49924 1
56280 49805 49925 1
56281 49807 49806 1
56282 49806 49926 1
56283 49806 49927 1
56284 49808 49807 1
56285 49807 49812 1
56286 49807 49928 1
56287 49808 49809 1
56288 49808 49929 1
56289 49810 49809 1
56290 49809 49930 1
56291 49809 49931 1
56292 49811 49810 1
56293 49810 49932 1
56294 49810 49933 1
56295 49812 49811 1
56296 49811 49934 1
56297 49811 49935 1
56298 49812 49936 1
56299 49814 49813 1
56300 49813 49819 1
56301 49815 49814 1
56302 49814 49816 1
56303 49815 49825 1
56304 49817 49816 1
56305 49818 49817 1
56306 49817 49823 1
56307 49817 49937 1
56308 49819 49818 1
56309 49818 49820 1
56310 49818 49938 1
56311 49821 49820 1
56312 49820 49939 1
56313 49820 49940 1
56314 49822 49821 1
56315 49821 49941 1
56316 49821 49942 1
56317 49823 49822 1
56318 49822 49943 1
56319 49822 49944 1
56320 49823 49945 1
56321 49823 49946 1
56322 49825 49824 1
56323 49824 49828 1
56324 49825 49947 1
56325 49827 49826 1
56326 49826 49829 1
56327 49828 49827 1
56328 49827 49832 1
56329 49828 49948 1
56330 49830 49829 1
56331 49829 49834 1
56332 49831 49830 1
56333 49830 49835 1
56334 49831 49949 1
56335 49833 49832 1
56336 49834 49833 1
56337 49833 49844 1
56338 49834 49837 1
56339 49836 49835 1
56340 49835 49841 1
56341 49835 49950 1
56342 49837 49836 1
56343 49836 49838 1
56344 49836 49951 1
56345 49837 49842 1
56346 49839 49838 1
56347 49838 49845 1
56348 49838 49952 1
56349 49840 49839 1
56350 49839 49953 1
56351 49839 49954 1
56352 49841 49840 1
56353 49840 49955 1
56354 49840 49956 1
56355 49841 49957 1
56356 49841 49958 1
56357 49843 49842 1
56358 49842 49846 1
56359 49844 49843 1
56360 49843 49854 1
56361 49844 49851 1
56362 49845 49846 1
56363 49845 49869 1
56364 49846 49865 1
56365 49847 49848 1
56366 49847 49849 1
56367 49847 49959 1
56368 49848 49960 1
56369 49848 49961 1
56370 49848 49962 1
56371 49849 49963 1
56372 49849 49964 1
56373 49849 49965 1
56374 49850 49966 1
56375 49852 49851 1
56376 49851 49967 1
56377 49853 49852 1
56378 49852 49968 1
56379 49854 49853 1
56380 49853 49858 1
56381 49854 49855 1
56382 49856 49855 1
56383 49855 49865 1
56384 49857 49856 1
56385 49856 49862 1
56386 49858 49857 1
56387 49857 49859 1
56388 49858 49969 1
56389 49860 49859 1
56390 49859 49970 1
56391 49861 49860 1
56392 49860 49971 1
56393 49862 49861 1
56394 49861 49868 1
56395 49862 49863 1
56396 49864 49863 1
56397 49863 49866 1
56398 49865 49864 1
56399 49864 49870 1
56400 49867 49866 1
56401 49866 49871 1
56402 49868 49867 1
56403 49867 49972 1
56404 49868 49973 1
56405 49870 49869 1
56406 49869 49974 1
56407 49870 49872 1
56408 49872 49871 1
56409 49871 49876 1
56410 49872 49873 1
56411 49874 49873 1
56412 49873 49975 1
56413 49873 49976 1
56414 49875 49874 1
56415 49874 49977 1
56416 49874 49978 1
56417 49876 49875 1
56418 49875 49979 1
56419 49875 49980 1
56420 49876 49877 2
56421 49981 49982 un
56422 49981 49986 un
56423 49981 50036 1
56424 49983 49982 un
56425 49982 50038 1
56426 49984 49983 un
56427 49983 49990 1
56428 49985 49984 un
56429 49984 49987 1
56430 49986 49985 un
56431 49985 50037 1
56432 49986 50034 1
56433 49988 49987 1
56434 49987 50050 1
56435 49987 50051 1
56436 49989 49988 un
56437 49988 49994 un
56438 49990 49989 1
56439 49989 49991 un
56440 49990 50052 1
56441 49990 50053 1
56442 49992 49991 un
56443 49991 50039 1
56444 49993 49992 un
56445 49992 50040 1
56446 49994 49993 un
56447 49993 49998 un
56448 49994 49995 un
56449 49996 49995 un
56450 49995 50054 1
56451 49997 49996 un
56452 49996 50002 un
56453 49998 49997 un
56454 49997 49999 1
56455 49998 50041 1
56456 50000 49999 1
56457 49999 50006 1
56458 50001 50000 1
56459 50000 50003 1
56460 50002 50001 un
56461 50001 50010 un
56462 50002 50007 un
56463 50004 50003 1
56464 50003 50055 1
56465 50003 50056 1
56466 50005 50004 un
56467 50004 50043 1
56468 50004 50057 1
56469 50006 50005 1
56470 50005 50042 1
56471 50005 50058 1
56472 50006 50059 1
56473 50006 50060 1
56474 50008 50007 un
56475 50007 50045 1
56476 50009 50008 un
56477 50008 50014 1
56478 50010 50009 un
56479 50009 50011 1
56480 50010 50044 1
56481 50012 50011 1
56482 50011 50047 2
56483 50013 50012 un
56484 50012 50018 un
56485 50014 50013 1
56486 50013 50015 1
56487 50014 50046 2
56488 50016 50015 1
56489 50015 50061 1
56490 50015 50062 1
56491 50017 50016 1
56492 50016 50063 1
56493 50016 50064 1
56494 50018 50017 un
56495 50017 50022 un
56496 50018 50019 un
56497 50020 50019 un
56498 50021 50020 un
56499 50020 50029 un
56500 50022 50021 un
56501 50021 50026 1
56502 50022 50023 1
56503 50024 50023 1
56504 50023 50065 1
56505 50023 50066 1
56506 50025 50024 1
56507 50024 50067 1
56508 50024 50068 1
56509 50026 50025 1
56510 50025 50069 1
56511 50025 50070 1
56512 50026 50027 1
56513 50026 50071 1
56514 50028 50027 1
56515 50027 50072 1
56516 50027 50073 1
56517 50029 50028 un
56518 50028 50033 un
56519 50029 50030 un
56520 50031 50030 un
56521 50030 50074 1
56522 50032 50031 un
56523 50031 50075 1
56524 50033 50032 un
56525 50032 50049 1
56526 50033 50048 1
56527 50034 50035 1
56528 50034 50076 1
56529 50034 50077 1
56530 50035 50078 1
56531 50035 50079 1
56532 50035 50080 1
56533 50036 50081 1
56534 50036 50082 1
56535 50036 50083 1
56536 50037 50084 1
56537 50037 50085 1
56538 50037 50086 1
56539 50038 50087 1
56540 50038 50088 1
56541 50038 50089 1
56542 50039 50090 1
56543 50039 50091 1
56544 50039 50092 1
56545 50040 50093 1
56546 50040 50094 1
56547 50040 50095 1
56548 50041 50096 1
56549 50042 50097 1
56550 50042 50098 1
56551 50042 50099 1
56552 50043 50100 1
56553 50043 50101 1
56554 50043 50102 1
56555 50044 50103 1
56556 50045 50104 1
56557 50048 50105 1
56558 50048 50106 1
56559 50048 50107 1
56560 50049 50108 1
56561 50049 50109 1
56562 50049 50110 1
56563 50111 50112 un
56564 50111 50116 un
56565 50111 50166 1
56566 50113 50112 un
56567 50112 50168 1
56568 50114 50113 un
56569 50113 50120 1
56570 50115 50114 un
56571 50114 50117 1
56572 50116 50115 un
56573 50115 50167 1
56574 50116 50164 1
56575 50118 50117 1
56576 50117 50180 1
56577 50117 50181 1
56578 50119 50118 un
56579 50118 50124 un
56580 50120 50119 1
56581 50119 50121 un
56582 50120 50182 1
56583 50120 50183 1
56584 50122 50121 un
56585 50121 50169 1
56586 50123 50122 un
56587 50122 50170 1
56588 50124 50123 un
56589 50123 50128 un
56590 50124 50125 un
56591 50126 50125 un
56592 50125 50184 1
56593 50127 50126 un
56594 50126 50132 un
56595 50128 50127 un
56596 50127 50129 1
56597 50128 50171 1
56598 50130 50129 1
56599 50129 50136 1
56600 50131 50130 1
56601 50130 50133 1
56602 50132 50131 un
56603 50131 50140 un
56604 50132 50137 un
56605 50134 50133 1
56606 50133 50185 1
56607 50133 50186 1
56608 50135 50134 un
56609 50134 50173 1
56610 50134 50187 1
56611 50136 50135 1
56612 50135 50172 1
56613 50135 50188 1
56614 50136 50189 1
56615 50136 50190 1
56616 50138 50137 un
56617 50137 50175 1
56618 50139 50138 un
56619 50138 50144 1
56620 50140 50139 un
56621 50139 50141 1
56622 50140 50174 1
56623 50142 50141 1
56624 50141 50177 2
56625 50143 50142 un
56626 50142 50148 un
56627 50144 50143 1
56628 50143 50145 1
56629 50144 50176 2
56630 50146 50145 1
56631 50145 50191 1
56632 50145 50192 1
56633 50147 50146 1
56634 50146 50193 1
56635 50146 50194 1
56636 50148 50147 un
56637 50147 50152 un
56638 50148 50149 un
56639 50150 50149 un
56640 50151 50150 un
56641 50150 50159 un
56642 50152 50151 un
56643 50151 50156 1
56644 50152 50153 1
56645 50154 50153 1
56646 50153 50195 1
56647 50153 50196 1
56648 50155 50154 1
56649 50154 50197 1
56650 50154 50198 1
56651 50156 50155 1
56652 50155 50199 1
56653 50155 50200 1
56654 50156 50157 1
56655 50156 50201 1
56656 50158 50157 1
56657 50157 50202 1
56658 50157 50203 1
56659 50159 50158 un
56660 50158 50163 un
56661 50159 50160 un
56662 50161 50160 un
56663 50160 50204 1
56664 50162 50161 un
56665 50161 50205 1
56666 50163 50162 un
56667 50162 50179 1
56668 50163 50178 1
56669 50164 50165 1
56670 50164 50206 1
56671 50164 50207 1
56672 50165 50208 1
56673 50165 50209 1
56674 50165 50210 1
56675 50166 50211 1
56676 50166 50212 1
56677 50166 50213 1
56678 50167 50214 1
56679 50167 50215 1
56680 50167 50216 1
56681 50168 50217 1
56682 50168 50218 1
56683 50168 50219 1
56684 50169 50220 1
56685 50169 50221 1
56686 50169 50222 1
56687 50170 50223 1
56688 50170 50224 1
56689 50170 50225 1
56690 50171 50226 1
56691 50172 50227 1
56692 50172 50228 1
56693 50172 50229 1
56694 50173 50230 1
56695 50173 50231 1
56696 50173 50232 1
56697 50174 50233 1
56698 50175 50234 1
56699 50178 50235 1
56700 50178 50236 1
56701 50178 50237 1
56702 50179 50238 1
56703 50179 50239 1
56704 50179 50240 1
56705 50241 50242 un
56706 50241 50246 un
56707 50241 50296 1
56708 50243 50242 un
56709 50242 50298 1
56710 50244 50243 un
56711 50243 50250 1
56712 50245 50244 un
56713 50244 50247 1
56714 50246 50245 un
56715 50245 50297 1
56716 50246 50294 1
56717 50248 50247 1
56718 50247 50310 1
56719 50247 50311 1
56720 50249 50248 un
56721 50248 50254 un
56722 50250 50249 1
56723 50249 50251 un
56724 50250 50312 1
56725 50250 50313 1
56726 50252 50251 un
56727 50251 50299 1
56728 50253 50252 un
56729 50252 50300 1
56730 50254 50253 un
56731 50253 50258 un
56732 50254 50255 un
56733 50256 50255 un
56734 50255 50314 1
56735 50257 50256 un
56736 50256 50262 un
56737 50258 50257 un
56738 50257 50259 1
56739 50258 50301 1
56740 50260 50259 1
56741 50259 50266 1
56742 50261 50260 1
56743 50260 50263 1
56744 50262 50261 un
56745 50261 50270 un
56746 50262 50267 un
56747 50264 50263 1
56748 50263 50315 1
56749 50263 50316 1
56750 50265 50264 un
56751 50264 50303 1
56752 50264 50317 1
56753 50266 50265 1
56754 50265 50302 1
56755 50265 50318 1
56756 50266 50319 1
56757 50266 50320 1
56758 50268 50267 un
56759 50267 50305 1
56760 50269 50268 un
56761 50268 50274 1
56762 50270 50269 un
56763 50269 50271 1
56764 50270 50304 1
56765 50272 50271 1
56766 50271 50307 2
56767 50273 50272 un
56768 50272 50278 un
56769 50274 50273 1
56770 50273 50275 1
56771 50274 50306 2
56772 50276 50275 1
56773 50275 50321 1
56774 50275 50322 1
56775 50277 50276 1
56776 50276 50323 1
56777 50276 50324 1
56778 50278 50277 un
56779 50277 50282 un
56780 50278 50279 un
56781 50280 50279 un
56782 50281 50280 un
56783 50280 50289 un
56784 50282 50281 un
56785 50281 50286 1
56786 50282 50283 1
56787 50284 50283 1
56788 50283 50325 1
56789 50283 50326 1
56790 50285 50284 1
56791 50284 50327 1
56792 50284 50328 1
56793 50286 50285 1
56794 50285 50329 1
56795 50285 50330 1
56796 50286 50287 1
56797 50286 50331 1
56798 50288 50287 1
56799 50287 50332 1
56800 50287 50333 1
56801 50289 50288 un
56802 50288 50293 un
56803 50289 50290 un
56804 50291 50290 un
56805 50290 50334 1
56806 50292 50291 un
56807 50291 50335 1
56808 50293 50292 un
56809 50292 50309 1
56810 50293 50308 1
56811 50294 50295 1
56812 50294 50336 1
56813 50294 50337 1
56814 50295 50338 1
56815 50295 50339 1
56816 50295 50340 1
56817 50296 50341 1
56818 50296 50342 1
56819 50296 50343 1
56820 50297 50344 1
56821 50297 50345 1
56822 50297 50346 1
56823 50298 50347 1
56824 50298 50348 1
56825 50298 50349 1
56826 50299 50350 1
56827 50299 50351 1
56828 50299 50352 1
56829 50300 50353 1
56830 50300 50354 1
56831 50300 50355 1
56832 50301 50356 1
56833 50302 50357 1
56834 50302 50358 1
56835 50302 50359 1
56836 50303 50360 1
56837 50303 50361 1
56838 50303 50362 1
56839 50304 50363 1
56840 50305 50364 1
56841 50308 50365 1
56842 50308 50366 1
56843 50308 50367 1
56844 50309 50368 1
56845 50309 50369 1
56846 50309 50370 1
56847 50371 50372 un
56848 50371 50376 un
56849 50371 50426 1
56850 50373 50372 un
56851 50372 50428 1
56852 50374 50373 un
56853 50373 50380 1
56854 50375 50374 un
56855 50374 50377 1
56856 50376 50375 un
56857 50375 50427 1
56858 50376 50424 1
56859 50378 50377 1
56860 50377 50440 1
56861 50377 50441 1
56862 50379 50378 un
56863 50378 50384 un
56864 50380 50379 1
56865 50379 50381 un
56866 50380 50442 1
56867 50380 50443 1
56868 50382 50381 un
56869 50381 50429 1
56870 50383 50382 un
56871 50382 50430 1
56872 50384 50383 un
56873 50383 50388 un
56874 50384 50385 un
56875 50386 50385 un
56876 50385 50444 1
56877 50387 50386 un
56878 50386 50392 un
56879 50388 50387 un
56880 50387 50389 1
56881 50388 50431 1
56882 50390 50389 1
56883 50389 50396 1
56884 50391 50390 1
56885 50390 50393 1
56886 50392 50391 un
56887 50391 50400 un
56888 50392 50397 un
56889 50394 50393 1
56890 50393 50445 1
56891 50393 50446 1
56892 50395 50394 un
56893 50394 50433 1
56894 50394 50447 1
56895 50396 50395 1
56896 50395 50432 1
56897 50395 50448 1
56898 50396 50449 1
56899 50396 50450 1
56900 50398 50397 un
56901 50397 50435 1
56902 50399 50398 un
56903 50398 50404 1
56904 50400 50399 un
56905 50399 50401 1
56906 50400 50434 1
56907 50402 50401 1
56908 50401 50437 2
56909 50403 50402 un
56910 50402 50408 un
56911 50404 50403 1
56912 50403 50405 1
56913 50404 50436 2
56914 50406 50405 1
56915 50405 50451 1
56916 50405 50452 1
56917 50407 50406 1
56918 50406 50453 1
56919 50406 50454 1
56920 50408 50407 un
56921 50407 50412 un
56922 50408 50409 un
56923 50410 50409 un
56924 50411 50410 un
56925 50410 50419 un
56926 50412 50411 un
56927 50411 50416 1
56928 50412 50413 1
56929 50414 50413 1
56930 50413 50455 1
56931 50413 50456 1
56932 50415 50414 1
56933 50414 50457 1
56934 50414 50458 1
56935 50416 50415 1
56936 50415 50459 1
56937 50415 50460 1
56938 50416 50417 1
56939 50416 50461 1
56940 50418 50417 1
56941 50417 50462 1
56942 50417 50463 1
56943 50419 50418 un
56944 50418 50423 un
56945 50419 50420 un
56946 50421 50420 un
56947 50420 50464 1
56948 50422 50421 un
56949 50421 50465 1
56950 50423 50422 un
56951 50422 50439 1
56952 50423 50438 1
56953 50424 50425 1
56954 50424 50466 1
56955 50424 50467 1
56956 50425 50468 1
56957 50425 50469 1
56958 50425 50470 1
56959 50426 50471 1
56960 50426 50472 1
56961 50426 50473 1
56962 50427 50474 1
56963 50427 50475 1
56964 50427 50476 1
56965 50428 50477 1
56966 50428 50478 1
56967 50428 50479 1
56968 50429 50480 1
56969 50429 50481 1
56970 50429 50482 1
56971 50430 50483 1
56972 50430 50484 1
56973 50430 50485 1
56974 50431 50486 1
56975 50432 50487 1
56976 50432 50488 1
56977 50432 50489 1
56978 50433 50490 1
56979 50433 50491 1
56980 50433 50492 1
56981 50434 50493 1
56982 50435 50494 1
56983 50438 50495 1
56984 50438 50496 1
56985 50438 50497 1
56986 50439 50498 1
56987 50439 50499 1
56988 50439 50500 1
56989 50501 50502 un
56990 50501 50506 un
56991 50501 50556 1
56992 50503 50502 un
56993 50502 50558 1
56994 50504 50503 un
56995 50503 50510 1
56996 50505 50504 un
56997 50504 50507 1
56998 50506 50505 un
56999 50505 50557 1
57000 50506 50554 1
57001 50508 50507 1
57002 50507 50570 1
57003 50507 50571 1
57004 50509 50508 un
57005 50508 50514 un
57006 50510 50509 1
57007 50509 50511 un
57008 50510 50572 1
57009 50510 50573 1
57010 50512 50511 un
57011 50511 50559 1
57012 50513 50512 un
57013 50512 50560 1
57014 50514 50513 un
57015 50513 50518 un
57016 50514 50515 un
57017 50516 50515 un
57018 50515 50574 1
57019 50517 50516 un
57020 50516 50522 un
57021 50518 50517 un
57022 50517 50519 1
57023 50518 50561 1
57024 50520 50519 1
57025 50519 50526 1
57026 50521 50520 1
57027 50520 50523 1
57028 50522 50521 un
57029 50521 50530 un
57030 50522 50527 un
57031 50524 50523 1
57032 50523 50575 1
57033 50523 50576 1
57034 50525 50524 un
57035 50524 50563 1
57036 50524 50577 1
57037 50526 50525 1
57038 50525 50562 1
57039 50525 50578 1
57040 50526 50579 1
57041 50526 50580 1
57042 50528 50527 un
57043 50527 50565 1
57044 50529 50528 un
57045 50528 50534 1
57046 50530 50529 un
57047 50529 50531 1
57048 50530 50564 1
57049 50532 50531 1
57050 50531 50567 2
57051 50533 50532 un
57052 50532 50538 un
57053 50534 50533 1
57054 50533 50535 1
57055 50534 50566 2
57056 50536 50535 1
57057 50535 50581 1
57058 50535 50582 1
57059 50537 50536 1
57060 50536 50583 1
57061 50536 50584 1
57062 50538 50537 un
57063 50537 50542 un
57064 50538 50539 un
57065 50540 50539 un
57066 50541 50540 un
57067 50540 50549 un
57068 50542 50541 un
57069 50541 50546 1
57070 50542 50543 1
57071 50544 50543 1
57072 50543 50585 1
57073 50543 50586 1
57074 50545 50544 1
57075 50544 50587 1
57076 50544 50588 1
57077 50546 50545 1
57078 50545 50589 1
57079 50545 50590 1
57080 50546 50547 1
57081 50546 50591 1
57082 50548 50547 1
57083 50547 50592 1
57084 50547 50593 1
57085 50549 50548 un
57086 50548 50553 un
57087 50549 50550 un
57088 50551 50550 un
57089 50550 50594 1
57090 50552 50551 un
57091 50551 50595 1
57092 50553 50552 un
57093 50552 50569 1
57094 50553 50568 1
57095 50554 50555 1
57096 50554 50596 1
57097 50554 50597 1
57098 50555 50598 1
57099 50555 50599 1
57100 50555 50600 1
57101 50556 50601 1
57102 50556 50602 1
57103 50556 50603 1
57104 50557 50604 1
57105 50557 50605 1
57106 50557 50606 1
57107 50558 50607 1
57108 50558 50608 1
57109 50558 50609 1
57110 50559 50610 1
57111 50559 50611 1
57112 50559 50612 1
57113 50560 50613 1
57114 50560 50614 1
57115 50560 50615 1
57116 50561 50616 1
57117 50562 50617 1
57118 50562 50618 1
57119 50562 50619 1
57120 50563 50620 1
57121 50563 50621 1
57122 50563 50622 1
57123 50564 50623 1
57124 50565 50624 1
57125 50568 50625 1
57126 50568 50626 1
57127 50568 50627 1
57128 50569 50628 1
57129 50569 50629 1
57130 50569 50630 1
57131 50631 50632 un
57132 50631 50636 un
57133 50631 50686 1
57134 50633 50632 un
57135 50632 50688 1
57136 50634 50633 un
57137 50633 50640 1
57138 50635 50634 un
57139 50634 50637 1
57140 50636 50635 un
57141 50635 50687 1
57142 50636 50684 1
57143 50638 50637 1
57144 50637 50700 1
57145 50637 50701 1
57146 50639 50638 un
57147 50638 50644 un
57148 50640 50639 1
57149 50639 50641 un
57150 50640 50702 1
57151 50640 50703 1
57152 50642 50641 un
57153 50641 50689 1
57154 50643 50642 un
57155 50642 50690 1
57156 50644 50643 un
57157 50643 50648 un
57158 50644 50645 un
57159 50646 50645 un
57160 50645 50704 1
57161 50647 50646 un
57162 50646 50652 un
57163 50648 50647 un
57164 50647 50649 1
57165 50648 50691 1
57166 50650 50649 1
57167 50649 50656 1
57168 50651 50650 1
57169 50650 50653 1
57170 50652 50651 un
57171 50651 50660 un
57172 50652 50657 un
57173 50654 50653 1
57174 50653 50705 1
57175 50653 50706 1
57176 50655 50654 un
57177 50654 50693 1
57178 50654 50707 1
57179 50656 50655 1
57180 50655 50692 1
57181 50655 50708 1
57182 50656 50709 1
57183 50656 50710 1
57184 50658 50657 un
57185 50657 50695 1
57186 50659 50658 un
57187 50658 50664 1
57188 50660 50659 un
57189 50659 50661 1
57190 50660 50694 1
57191 50662 50661 1
57192 50661 50697 2
57193 50663 50662 un
57194 50662 50668 un
57195 50664 50663 1
57196 50663 50665 1
57197 50664 50696 2
57198 50666 50665 1
57199 50665 50711 1
57200 50665 50712 1
57201 50667 50666 1
57202 50666 50713 1
57203 50666 50714 1
57204 50668 50667 un
57205 50667 50672 un
57206 50668 50669 un
57207 50670 50669 un
57208 50671 50670 un
57209 50670 50679 un
57210 50672 50671 un
57211 50671 50676 1
57212 50672 50673 1
57213 50674 50673 1
57214 50673 50715 1
57215 50673 50716 1
57216 50675 50674 1
57217 50674 50717 1
57218 50674 50718 1
57219 50676 50675 1
57220 50675 50719 1
57221 50675 50720 1
57222 50676 50677 1
57223 50676 50721 1
57224 50678 50677 1
57225 50677 50722 1
57226 50677 50723 1
57227 50679 50678 un
57228 50678 50683 un
57229 50679 50680 un
57230 50681 50680 un
57231 50680 50724 1
57232 50682 50681 un
57233 50681 50725 1
57234 50683 50682 un
57235 50682 50699 1
57236 50683 50698 1
57237 50684 50685 1
57238 50684 50726 1
57239 50684 50727 1
57240 50685 50728 1
57241 50685 50729 1
57242 50685 50730 1
57243 50686 50731 1
57244 50686 50732 1
57245 50686 50733 1
57246 50687 50734 1
57247 50687 50735 1
57248 50687 50736 1
57249 50688 50737 1
57250 50688 50738 1
57251 50688 50739 1
57252 50689 50740 1
57253 50689 50741 1
57254 50689 50742 1
57255 50690 50743 1
57256 50690 50744 1
57257 50690 50745 1
57258 50691 50746 1
57259 50692 50747 1
57260 50692 50748 1
57261 50692 50749 1
57262 50693 50750 1
57263 50693 50751 1
57264 50693 50752 1
57265 50694 50753 1
57266 50695 50754 1
57267 50698 50755 1
57268 50698 50756 1
57269 50698 50757 1
57270 50699 50758 1
57271 50699 50759 1
57272 50699 50760 1
57273 50761 50762 un
57274 50761 50766 un
57275 50761 50816 1
57276 50763 50762 un
57277 50762 50818 1
57278 50764 50763 un
57279 50763 50770 1
57280 50765 50764 un
57281 50764 50767 1
57282 50766 50765 un
57283 50765 50817 1
57284 50766 50814 1
57285 50768 50767 1
57286 50767 50830 1
57287 50767 50831 1
57288 50769 50768 un
57289 50768 50774 un
57290 50770 50769 1
57291 50769 50771 un
57292 50770 50832 1
57293 50770 50833 1
57294 50772 50771 un
57295 50771 50819 1
57296 50773 50772 un
57297 50772 50820 1
57298 50774 50773 un
57299 50773 50778 un
57300 50774 50775 un
57301 50776 50775 un
57302 50775 50834 1
57303 50777 50776 un
57304 50776 50782 un
57305 50778 50777 un
57306 50777 50779 1
57307 50778 50821 1
57308 50780 50779 1
57309 50779 50786 1
57310 50781 50780 1
57311 50780 50783 1
57312 50782 50781 un
57313 50781 50790 un
57314 50782 50787 un
57315 50784 50783 1
57316 50783 50835 1
57317 50783 50836 1
57318 50785 50784 un
57319 50784 50823 1
57320 50784 50837 1
57321 50786 50785 1
57322 50785 50822 1
57323 50785 50838 1
57324 50786 50839 1
57325 50786 50840 1
57326 50788 50787 un
57327 50787 50825 1
57328 50789 50788 un
57329 50788 50794 1
57330 50790 50789 un
57331 50789 50791 1
57332 50790 50824 1
57333 50792 50791 1
57334 50791 50827 2
57335 50793 50792 un
57336 50792 50798 un
57337 50794 50793 1
57338 50793 50795 1
57339 50794 50826 2
57340 50796 50795 1
57341 50795 50841 1
57342 50795 50842 1
57343 50797 50796 1
57344 50796 50843 1
57345 50796 50844 1
57346 50798 50797 un
57347 50797 50802 un
57348 50798 50799 un
57349 50800 50799 un
57350 50801 50800 un
57351 50800 50809 un
57352 50802 50801 un
57353 50801 50806 1
57354 50802 50803 1
57355 50804 50803 1
57356 50803 50845 1
57357 50803 50846 1
57358 50805 50804 1
57359 50804 50847 1
57360 50804 50848 1
57361 50806 50805 1
57362 50805 50849 1
57363 50805 50850 1
57364 50806 50807 1
57365 50806 50851 1
57366 50808 50807 1
57367 50807 50852 1
57368 50807 50853 1
57369 50809 50808 un
57370 50808 50813 un
57371 50809 50810 un
57372 50811 50810 un
57373 50810 50854 1
57374 50812 50811 un
57375 50811 50855 1
57376 50813 50812 un
57377 50812 50829 1
57378 50813 50828 1
57379 50814 50815 1
57380 50814 50856 1
57381 50814 50857 1
57382 50815 50858 1
57383 50815 50859 1
57384 50815 50860 1
57385 50816 50861 1
57386 50816 50862 1
57387 50816 50863 1
57388 50817 50864 1
57389 50817 50865 1
57390 50817 50866 1
57391 50818 50867 1
57392 50818 50868 1
57393 50818 50869 1
57394 50819 50870 1
57395 50819 50871 1
57396 50819 50872 1
57397 50820 50873 1
57398 50820 50874 1
57399 50820 50875 1
57400 50821 50876 1
57401 50822 50877 1
57402 50822 50878 1
57403 50822 50879 1
57404 50823 50880 1
57405 50823 50881 1
57406 50823 50882 1
57407 50824 50883 1
57408 50825 50884 1
57409 50828 50885 1
57410 50828 50886 1
57411 50828 50887 1
57412 50829 50888 1
57413 50829 50889 1
57414 50829 50890 1
57415 50891 50892 un
57416 50891 50896 un
57417 50891 50946 1
57418 50893 50892 un
57419 50892 50948 1
57420 50894 50893 un
57421 50893 50900 1
57422 50895 50894 un
57423 50894 50897 1
57424 50896 50895 un
57425 50895 50947 1
57426 50896 50944 1
57427 50898 50897 1
57428 50897 50960 1
57429 50897 50961 1
57430 50899 50898 un
57431 50898 50904 un
57432 50900 50899 1
57433 50899 50901 un
57434 50900 50962 1
57435 50900 50963 1
57436 50902 50901 un
57437 50901 50949 1
57438 50903 50902 un
57439 50902 50950 1
57440 50904 50903 un
57441 50903 50908 un
57442 50904 50905 un
57443 50906 50905 un
57444 50905 50964 1
57445 50907 50906 un
57446 50906 50912 un
57447 50908 50907 un
57448 50907 50909 1
57449 50908 50951 1
57450 50910 50909 1
57451 50909 50916 1
57452 50911 50910 1
57453 50910 50913 1
57454 50912 50911 un
57455 50911 50920 un
57456 50912 50917 un
57457 50914 50913 1
57458 50913 50965 1
57459 50913 50966 1
57460 50915 50914 un
57461 50914 50953 1
57462 50914 50967 1
57463 50916 50915 1
57464 50915 50952 1
57465 50915 50968 1
57466 50916 50969 1
57467 50916 50970 1
57468 50918 50917 un
57469 50917 50955 1
57470 50919 50918 un
57471 50918 50924 1
57472 50920 50919 un
57473 50919 50921 1
57474 50920 50954 1
57475 50922 50921 1
57476 50921 50957 2
57477 50923 50922 un
57478 50922 50928 un
57479 50924 50923 1
57480 50923 50925 1
57481 50924 50956 2
57482 50926 50925 1
57483 50925 50971 1
57484 50925 50972 1
57485 50927 50926 1
57486 50926 50973 1
57487 50926 50974 1
57488 50928 50927 un
57489 50927 50932 un
57490 50928 50929 un
57491 50930 50929 un
57492 50931 50930 un
57493 50930 50939 un
57494 50932 50931 un
57495 50931 50936 1
57496 50932 50933 1
57497 50934 50933 1
57498 50933 50975 1
57499 50933 50976 1
57500 50935 50934 1
57501 50934 50977 1
57502 50934 50978 1
57503 50936 50935 1
57504 50935 50979 1
57505 50935 50980 1
57506 50936 50937 1
57507 50936 50981 1
57508 50938 50937 1
57509 50937 50982 1
57510 50937 50983 1
57511 50939 50938 un
57512 50938 50943 un
57513 50939 50940 un
57514 50941 50940 un
57515 50940 50984 1
57516 50942 50941 un
57517 50941 50985 1
57518 50943 50942 un
57519 50942 50959 1
57520 50943 50958 1
57521 50944 50945 1
57522 50944 50986 1
57523 50944 50987 1
57524 50945 50988 1
57525 50945 50989 1
57526 50945 50990 1
57527 50946 50991 1
57528 50946 50992 1
57529 50946 50993 1
57530 50947 50994 1
57531 50947 50995 1
57532 50947 50996 1
57533 50948 50997 1
57534 50948 50998 1
57535 50948 50999 1
57536 50949 51000 1
57537 50949 51001 1
57538 50949 51002 1
57539 50950 51003 1
57540 50950 51004 1
57541 50950 51005 1
57542 50951 51006 1
57543 50952 51007 1
57544 50952 51008 1
57545 50952 51009 1
57546 50953 51010 1
57547 50953 51011 1
57548 50953 51012 1
57549 50954 51013 1
57550 50955 51014 1
57551 50958 51015 1
57552 50958 51016 1
57553 50958 51017 1
57554 50959 51018 1
57555 50959 51019 1
57556 50959 51020 1
57557 51021 51022 un
57558 51021 51026 un
57559 51021 51076 1
57560 51023 51022 un
57561 51022 51078 1
57562 51024 51023 un
57563 51023 51030 1
57564 51025 51024 un
57565 51024 51027 1
57566 51026 51025 un
57567 51025 51077 1
57568 51026 51074 1
57569 51028 51027 1
57570 51027 51090 1
57571 51027 51091 1
57572 51029 51028 un
57573 51028 51034 un
57574 51030 51029 1
57575 51029 51031 un
57576 51030 51092 1
57577 51030 51093 1
57578 51032 51031 un
57579 51031 51079 1
57580 51033 51032 un
57581 51032 51080 1
57582 51034 51033 un
57583 51033 51038 un
57584 51034 51035 un
57585 51036 51035 un
57586 51035 51094 1
57587 51037 51036 un
57588 51036 51042 un
57589 51038 51037 un
57590 51037 51039 1
57591 51038 51081 1
57592 51040 51039 1
57593 51039 51046 1
57594 51041 51040 1
57595 51040 51043 1
57596 51042 51041 un
57597 51041 51050 un
57598 51042 51047 un
57599 51044 51043 1
57600 51043 51095 1
57601 51043 51096 1
57602 51045 51044 un
57603 51044 51083 1
57604 51044 51097 1
57605 51046 51045 1
57606 51045 51082 1
57607 51045 51098 1
57608 51046 51099 1
57609 51046 51100 1
57610 51048 51047 un
57611 51047 51085 1
57612 51049 51048 un
57613 51048 51054 1
57614 51050 51049 un
57615 51049 51051 1
57616 51050 51084 1
57617 51052 51051 1
57618 51051 51087 2
57619 51053 51052 un
57620 51052 51058 un
57621 51054 51053 1
57622 51053 51055 1
57623 51054 51086 2
57624 51056 51055 1
57625 51055 51101 1
57626 51055 51102 1
57627 51057 51056 1
57628 51056 51103 1
57629 51056 51104 1
57630 51058 51057 un
57631 51057 51062 un
57632 51058 51059 un
57633 51060 51059 un
57634 51061 51060 un
57635 51060 51069 un
57636 51062 51061 un
57637 51061 51066 1
57638 51062 51063 1
57639 51064 51063 1
57640 51063 51105 1
57641 51063 51106 1
57642 51065 51064 1
57643 51064 51107 1
57644 51064 51108 1
57645 51066 51065 1
57646 51065 51109 1
57647 51065 51110 1
57648 51066 51067 1
57649 51066 51111 1
57650 51068 51067 1
57651 51067 51112 1
57652 51067 51113 1
57653 51069 51068 un
57654 51068 51073 un
57655 51069 51070 un
57656 51071 51070 un
57657 51070 51114 1
57658 51072 51071 un
57659 51071 51115 1
57660 51073 51072 un
57661 51072 51089 1
57662 51073 51088 1
57663 51074 51075 1
57664 51074 51116 1
57665 51074 51117 1
57666 51075 51118 1
57667 51075 51119 1
57668 51075 51120 1
57669 51076 51121 1
57670 51076 51122 1
57671 51076 51123 1
57672 51077 51124 1
57673 51077 51125 1
57674 51077 51126 1
57675 51078 51127 1
57676 51078 51128 1
57677 51078 51129 1
57678 51079 51130 1
57679 51079 51131 1
57680 51079 51132 1
57681 51080 51133 1
57682 51080 51134 1
57683 51080 51135 1
57684 51081 51136 1
57685 51082 51137 1
57686 51082 51138 1
57687 51082 51139 1
57688 51083 51140 1
57689 51083 51141 1
57690 51083 51142 1
57691 51084 51143 1
57692 51085 51144 1
57693 51088 51145 1
57694 51088 51146 1
57695 51088 51147 1
57696 51089 51148 1
57697 51089 51149 1
57698 51089 51150 1
57699 51151 51152 un
57700 51151 51156 un
57701 51151 51206 1
57702 51153 51152 un
57703 51152 51208 1
57704 51154 51153 un
57705 51153 51160 1
57706 51155 51154 un
57707 51154 51157 1
57708 51156 51155 un
57709 51155 51207 1
57710 51156 51204 1
57711 51158 51157 1
57712 51157 51220 1
57713 51157 51221 1
57714 51159 51158 un
57715 51158 51164 un
57716 51160 51159 1
57717 51159 51161 un
57718 51160 51222 1
57719 51160 51223 1
57720 51162 51161 un
57721 51161 51209 1
57722 51163 51162 un
57723 51162 51210 1
57724 51164 51163 un
57725 51163 51168 un
57726 51164 51165 un
57727 51166 51165 un
57728 51165 51224 1
57729 51167 51166 un
57730 51166 51172 un
57731 51168 51167 un
57732 51167 51169 1
57733 51168 51211 1
57734 51170 51169 1
57735 51169 51176 1
57736 51171 51170 1
57737 51170 51173 1
57738 51172 51171 un
57739 51171 51180 un
57740 51172 51177 un
57741 51174 51173 1
57742 51173 51225 1
57743 51173 51226 1
57744 51175 51174 un
57745 51174 51213 1
57746 51174 51227 1
57747 51176 51175 1
57748 51175 51212 1
57749 51175 51228 1
57750 51176 51229 1
57751 51176 51230 1
57752 51178 51177 un
57753 51177 51215 1
57754 51179 51178 un
57755 51178 51184 1
57756 51180 51179 un
57757 51179 51181 1
57758 51180 51214 1
57759 51182 51181 1
57760 51181 51217 2
57761 51183 51182 un
57762 51182 51188 un
57763 51184 51183 1
57764 51183 51185 1
57765 51184 51216 2
57766 51186 51185 1
57767 51185 51231 1
57768 51185 51232 1
57769 51187 51186 1
57770 51186 51233 1
57771 51186 51234 1
57772 51188 51187 un
57773 51187 51192 un
57774 51188 51189 un
57775 51190 51189 un
57776 51191 51190 un
57777 51190 51199 un
57778 51192 51191 un
57779 51191 51196 1
57780 51192 51193 1
57781 51194 51193 1
57782 51193 51235 1
57783 51193 51236 1
57784 51195 51194 1
57785 51194 51237 1
57786 51194 51238 1
57787 51196 51195 1
57788 51195 51239 1
57789 51195 51240 1
57790 51196 51197 1
57791 51196 51241 1
57792 51198 51197 1
57793 51197 51242 1
57794 51197 51243 1
57795 51199 51198 un
57796 51198 51203 un
57797 51199 51200 un
57798 51201 51200 un
57799 51200 51244 1
57800 51202 51201 un
57801 51201 51245 1
57802 51203 51202 un
57803 51202 51219 1
57804 51203 51218 1
57805 51204 51205 1
57806 51204 51246 1
57807 51204 51247 1
57808 51205 51248 1
57809 51205 51249 1
57810 51205 51250 1
57811 51206 51251 1
57812 51206 51252 1
57813 51206 51253 1
57814 51207 51254 1
57815 51207 51255 1
57816 51207 51256 1
57817 51208 51257 1
57818 51208 51258 1
57819 51208 51259 1
57820 51209 51260 1
57821 51209 51261 1
57822 51209 51262 1
57823 51210 51263 1
57824 51210 51264 1
57825 51210 51265 1
57826 51211 51266 1
57827 51212 51267 1
57828 51212 51268 1
57829 51212 51269 1
57830 51213 51270 1
57831 51213 51271 1
57832 51213 51272 1
57833 51214 51273 1
57834 51215 51274 1
57835 51218 51275 1
57836 51218 51276 1
57837 51218 51277 1
57838 51219 51278 1
57839 51219 51279 1
57840 51219 51280 1
57841 51281 51282 un
57842 51281 51286 un
57843 51281 51336 1
57844 51283 51282 un
57845 51282 51338 1
57846 51284 51283 un
57847 51283 51290 1
57848 51285 51284 un
57849 51284 51287 1
57850 51286 51285 un
57851 51285 51337 1
57852 51286 51334 1
57853 51288 51287 1
57854 51287 51350 1
57855 51287 51351 1
57856 51289 51288 un
57857 51288 51294 un
57858 51290 51289 1
57859 51289 51291 un
57860 51290 51352 1
57861 51290 51353 1
57862 51292 51291 un
57863 51291 51339 1
57864 51293 51292 un
57865 51292 51340 1
57866 51294 51293 un
57867 51293 51298 un
57868 51294 51295 un
57869 51296 51295 un
57870 51295 51354 1
57871 51297 51296 un
57872 51296 51302 un
57873 51298 51297 un
57874 51297 51299 1
57875 51298 51341 1
57876 51300 51299 1
57877 51299 51306 1
57878 51301 51300 1
57879 51300 51303 1
57880 51302 51301 un
57881 51301 51310 un
57882 51302 51307 un
57883 51304 51303 1
57884 51303 51355 1
57885 51303 51356 1
57886 51305 51304 un
57887 51304 51343 1
57888 51304 51357 1
57889 51306 51305 1
57890 51305 51342 1
57891 51305 51358 1
57892 51306 51359 1
57893 51306 51360 1
57894 51308 51307 un
57895 51307 51345 1
57896 51309 51308 un
57897 51308 51314 1
57898 51310 51309 un
57899 51309 51311 1
57900 51310 51344 1
57901 51312 51311 1
57902 51311 51347 2
57903 51313 51312 un
57904 51312 51318 un
57905 51314 51313 1
57906 51313 51315 1
57907 51314 51346 2
57908 51316 51315 1
57909 51315 51361 1
57910 51315 51362 1
57911 51317 51316 1
57912 51316 51363 1
57913 51316 51364 1
57914 51318 51317 un
57915 51317 51322 un
57916 51318 51319 un
57917 51320 51319 un
57918 51321 51320 un
57919 51320 51329 un
57920 51322 51321 un
57921 51321 51326 1
57922 51322 51323 1
57923 51324 51323 1
57924 51323 51365 1
57925 51323 51366 1
57926 51325 51324 1
57927 51324 51367 1
57928 51324 51368 1
57929 51326 51325 1
57930 51325 51369 1
57931 51325 51370 1
57932 51326 51327 1
57933 51326 51371 1
57934 51328 51327 1
57935 51327 51372 1
57936 51327 51373 1
57937 51329 51328 un
57938 51328 51333 un
57939 51329 51330 un
57940 51331 51330 un
57941 51330 51374 1
57942 51332 51331 un
57943 51331 51375 1
57944 51333 51332 un
57945 51332 51349 1
57946 51333 51348 1
57947 51334 51335 1
57948 51334 51376 1
57949 51334 51377 1
57950 51335 51378 1
57951 51335 51379 1
57952 51335 51380 1
57953 51336 51381 1
57954 51336 51382 1
57955 51336 51383 1
57956 51337 51384 1
57957 51337 51385 1
57958 51337 51386 1
57959 51338 51387 1
57960 51338 51388 1
57961 51338 51389 1
57962 51339 51390 1
57963 51339 51391 1
57964 51339 51392 1
57965 51340 51393 1
57966 51340 51394 1
57967 51340 51395 1
57968 51341 51396 1
57969 51342 51397 1
57970 51342 51398 1
57971 51342 51399 1
57972 51343 51400 1
57973 51343 51401 1
57974 51343 51402 1
57975 51344 51403 1
57976 51345 51404 1
57977 51348 51405 1
57978 51348 51406 1
57979 51348 51407 1
57980 51349 51408 1
57981 51349 51409 1
57982 51349 51410 1
57983 51411 51412 un
57984 51411 51416 un
57985 51411 51466 1
57986 51413 51412 un
57987 51412 51468 1
57988 51414 51413 un
57989 51413 51420 1
57990 51415 51414 un
57991 51414 51417 1
57992 51416 51415 un
57993 51415 51467 1
57994 51416 51464 1
57995 51418 51417 1
57996 51417 51480 1
57997 51417 51481 1
57998 51419 51418 un
57999 51418 51424 un
58000 51420 51419 1
58001 51419 51421 un
58002 51420 51482 1
58003 51420 51483 1
58004 51422 51421 un
58005 51421 51469 1
58006 51423 51422 un
58007 51422 51470 1
58008 51424 51423 un
58009 51423 51428 un
58010 51424 51425 un
58011 51426 51425 un
58012 51425 51484 1
58013 51427 51426 un
58014 51426 51432 un
58015 51428 51427 un
58016 51427 51429 1
58017 51428 51471 1
58018 51430 51429 1
58019 51429 51436 1
58020 51431 51430 1
58021 51430 51433 1
58022 51432 51431 un
58023 51431 51440 un
58024 51432 51437 un
58025 51434 51433 1
58026 51433 51485 1
58027 51433 51486 1
58028 51435 51434 un
58029 51434 51473 1
58030 51434 51487 1
58031 51436 51435 1
58032 51435 51472 1
58033 51435 51488 1
58034 51436 51489 1
58035 51436 51490 1
58036 51438 51437 un
58037 51437 51475 1
58038 51439 51438 un
58039 51438 51444 1
58040 51440 51439 un
58041 51439 51441 1
58042 51440 51474 1
58043 51442 51441 1
58044 51441 51477 2
58045 51443 51442 un
58046 51442 51448 un
58047 51444 51443 1
58048 51443 51445 1
58049 51444 51476 2
58050 51446 51445 1
58051 51445 51491 1
58052 51445 51492 1
58053 51447 51446 1
58054 51446 51493 1
58055 51446 51494 1
58056 51448 51447 un
58057 51447 51452 un
58058 51448 51449 un
58059 51450 51449 un
58060 51451 51450 un
58061 51450 51459 un
58062 51452 51451 un
58063 51451 51456 1
58064 51452 51453 1
58065 51454 51453 1
58066 51453 51495 1
58067 51453 51496 1
58068 51455 51454 1
58069 51454 51497 1
58070 51454 51498 1
58071 51456 51455 1
58072 51455 51499 1
58073 51455 51500 1
58074 51456 51457 1
58075 51456 51501 1
58076 51458 51457 1
58077 51457 51502 1
58078 51457 51503 1
58079 51459 51458 un
58080 51458 51463 un
58081 51459 51460 un
58082 51461 51460 un
58083 51460 51504 1
58084 51462 51461 un
58085 51461 51505 1
58086 51463 51462 un
58087 51462 51479 1
58088 51463 51478 1
58089 51464 51465 1
58090 51464 51506 1
58091 51464 51507 1
58092 51465 51508 1
58093 51465 51509 1
58094 51465 51510 1
58095 51466 51511 1
58096 51466 51512 1
58097 51466 51513 1
58098 51467 51514 1
58099 51467 51515 1
58100 51467 51516 1
58101 51468 51517 1
58102 51468 51518 1
58103 51468 51519 1
58104 51469 51520 1
58105 51469 51521 1
58106 51469 51522 1
58107 51470 51523 1
58108 51470 51524 1
58109 51470 51525 1
58110 51471 51526 1
58111 51472 51527 1
58112 51472 51528 1
58113 51472 51529 1
58114 51473 51530 1
58115 51473 51531 1
58116 51473 51532 1
58117 51474 51533 1
58118 51475 51534 1
58119 51478 51535 1
58120 51478 51536 1
58121 51478 51537 1
58122 51479 51538 1
58123 51479 51539 1
58124 51479 51540 1
58125 51541 51542 un
58126 51541 51546 un
58127 51541 51596 1
58128 51543 51542 un
58129 51542 51598 1
58130 51544 51543 un
58131 51543 51550 1
58132 51545 51544 un
58133 51544 51547 1
58134 51546 51545 un
58135 51545 51597 1
58136 51546 51594 1
58137 51548 51547 1
58138 51547 51610 1
58139 51547 51611 1
58140 51549 51548 un
58141 51548 51554 un
58142 51550 51549 1
58143 51549 51551 un
58144 51550 51612 1
58145 51550 51613 1
58146 51552 51551 un
58147 51551 51599 1
58148 51553 51552 un
58149 51552 51600 1
58150 51554 51553 un
58151 51553 51558 un
58152 51554 51555 un
58153 51556 51555 un
58154 51555 51614 1
58155 51557 51556 un
58156 51556 51562 un
58157 51558 51557 un
58158 51557 51559 1
58159 51558 51601 1
58160 51560 51559 1
58161 51559 51566 1
58162 51561 51560 1
58163 51560 51563 1
58164 51562 51561 un
58165 51561 51570 un
58166 51562 51567 un
58167 51564 51563 1
58168 51563 51615 1
58169 51563 51616 1
58170 51565 51564 un
58171 51564 51603 1
58172 51564 51617 1
58173 51566 51565 1
58174 51565 51602 1
58175 51565 51618 1
58176 51566 51619 1
58177 51566 51620 1
58178 51568 51567 un
58179 51567 51605 1
58180 51569 51568 un
58181 51568 51574 1
58182 51570 51569 un
58183 51569 51571 1
58184 51570 51604 1
58185 51572 51571 1
58186 51571 51607 2
58187 51573 51572 un
58188 51572 51578 un
58189 51574 51573 1
58190 51573 51575 1
58191 51574 51606 2
58192 51576 51575 1
58193 51575 51621 1
58194 51575 51622 1
58195 51577 51576 1
58196 51576 51623 1
58197 51576 51624 1
58198 51578 51577 un
58199 51577 51582 un
58200 51578 51579 un
58201 51580 51579 un
58202 51581 51580 un
58203 51580 51589 un
58204 51582 51581 un
58205 51581 51586 1
58206 51582 51583 1
58207 51584 51583 1
58208 51583 51625 1
58209 51583 51626 1
58210 51585 51584 1
58211 51584 51627 1
58212 51584 51628 1
58213 51586 51585 1
58214 51585 51629 1
58215 51585 51630 1
58216 51586 51587 1
58217 51586 51631 1
58218 51588 51587 1
58219 51587 51632 1
58220 51587 51633 1
58221 51589 51588 un
58222 51588 51593 un
58223 51589 51590 un
58224 51591 51590 un
58225 51590 51634 1
58226 51592 51591 un
58227 51591 51635 1
58228 51593 51592 un
58229 51592 51609 1
58230 51593 51608 1
58231 51594 51595 1
58232 51594 51636 1
58233 51594 51637 1
58234 51595 51638 1
58235 51595 51639 1
58236 51595 51640 1
58237 51596 51641 1
58238 51596 51642 1
58239 51596 51643 1
58240 51597 51644 1
58241 51597 51645 1
58242 51597 51646 1
58243 51598 51647 1
58244 51598 51648 1
58245 51598 51649 1
58246 51599 51650 1
58247 51599 51651 1
58248 51599 51652 1
58249 51600 51653 1
58250 51600 51654 1
58251 51600 51655 1
58252 51601 51656 1
58253 51602 51657 1
58254 51602 51658 1
58255 51602 51659 1
58256 51603 51660 1
58257 51603 51661 1
58258 51603 51662 1
58259 51604 51663 1
58260 51605 51664 1
58261 51608 51665 1
58262 51608 51666 1
58263 51608 51667 1
58264 51609 51668 1
58265 51609 51669 1
58266 51609 51670 1
58267 51671 51672 un
58268 51671 51676 un
58269 51671 51726 1
58270 51673 51672 un
58271 51672 51728 1
58272 51674 51673 un
58273 51673 51680 1
58274 51675 51674 un
58275 51674 51677 1
58276 51676 51675 un
58277 51675 51727 1
58278 51676 51724 1
58279 51678 51677 1
58280 51677 51740 1
58281 51677 51741 1
58282 51679 51678 un
58283 51678 51684 un
58284 51680 51679 1
58285 51679 51681 un
58286 51680 51742 1
58287 51680 51743 1
58288 51682 51681 un
58289 51681 51729 1
58290 51683 51682 un
58291 51682 51730 1
58292 51684 51683 un
58293 51683 51688 un
58294 51684 51685 un
58295 51686 51685 un
58296 51685 51744 1
58297 51687 51686 un
58298 51686 51692 un
58299 51688 51687 un
58300 51687 51689 1
58301 51688 51731 1
58302 51690 51689 1
58303 51689 51696 1
58304 51691 51690 1
58305 51690 51693 1
58306 51692 51691 un
58307 51691 51700 un
58308 51692 51697 un
58309 51694 51693 1
58310 51693 51745 1
58311 51693 51746 1
58312 51695 51694 un
58313 51694 51733 1
58314 51694 51747 1
58315 51696 51695 1
58316 51695 51732 1
58317 51695 51748 1
58318 51696 51749 1
58319 51696 51750 1
58320 51698 51697 un
58321 51697 51735 1
58322 51699 51698 un
58323 51698 51704 1
58324 51700 51699 un
58325 51699 51701 1
58326 51700 51734 1
58327 51702 51701 1
58328 51701 51737 2
58329 51703 51702 un
58330 51702 51708 un
58331 51704 51703 1
58332 51703 51705 1
58333 51704 51736 2
58334 51706 51705 1
58335 51705 51751 1
58336 51705 51752 1
58337 51707 51706 1
58338 51706 51753 1
58339 51706 51754 1
58340 51708 51707 un
58341 51707 51712 un
58342 51708 51709 un
58343 51710 51709 un
58344 51711 51710 un
58345 51710 51719 un
58346 51712 51711 un
58347 51711 51716 1
58348 51712 51713 1
58349 51714 51713 1
58350 51713 51755 1
58351 51713 51756 1
58352 51715 51714 1
58353 51714 51757 1
58354 51714 51758 1
58355 51716 51715 1
58356 51715 51759 1
58357 51715 51760 1
58358 51716 51717 1
58359 51716 51761 1
58360 51718 51717 1
58361 51717 51762 1
58362 51717 51763 1
58363 51719 51718 un
58364 51718 51723 un
58365 51719 51720 un
58366 51721 51720 un
58367 51720 51764 1
58368 51722 51721 un
58369 51721 51765 1
58370 51723 51722 un
58371 51722 51739 1
58372 51723 51738 1
58373 51724 51725 1
58374 51724 51766 1
58375 51724 51767 1
58376 51725 51768 1
58377 51725 51769 1
58378 51725 51770 1
58379 51726 51771 1
58380 51726 51772 1
58381 51726 51773 1
58382 51727 51774 1
58383 51727 51775 1
58384 51727 51776 1
58385 51728 51777 1
58386 51728 51778 1
58387 51728 51779 1
58388 51729 51780 1
58389 51729 51781 1
58390 51729 51782 1
58391 51730 51783 1
58392 51730 51784 1
58393 51730 51785 1
58394 51731 51786 1
58395 51732 51787 1
58396 51732 51788 1
58397 51732 51789 1
58398 51733 51790 1
58399 51733 51791 1
58400 51733 51792 1
58401 51734 51793 1
58402 51735 51794 1
58403 51738 51795 1
58404 51738 51796 1
58405 51738 51797 1
58406 51739 51798 1
58407 51739 51799 1
58408 51739 51800 1
58409 51801 51802 un
58410 51801 51806 un
58411 51801 51856 1
58412 51803 51802 un
58413 51802 51858 1
58414 51804 51803 un
58415 51803 51810 1
58416 51805 51804 un
58417 51804 51807 1
58418 51806 51805 un
58419 51805 51857 1
58420 51806 51854 1
58421 51808 51807 1
58422 51807 51870 1
58423 51807 51871 1
58424 51809 51808 un
58425 51808 51814 un
58426 51810 51809 1
58427 51809 51811 un
58428 51810 51872 1
58429 51810 51873 1
58430 51812 51811 un
58431 51811 51859 1
58432 51813 51812 un
58433 51812 51860 1
58434 51814 51813 un
58435 51813 51818 un
58436 51814 51815 un
58437 51816 51815 un
58438 51815 51874 1
58439 51817 51816 un
58440 51816 51822 un
58441 51818 51817 un
58442 51817 51819 1
58443 51818 51861 1
58444 51820 51819 1
58445 51819 51826 1
58446 51821 51820 1
58447 51820 51823 1
58448 51822 51821 un
58449 51821 51830 un
58450 51822 51827 un
58451 51824 51823 1
58452 51823 51875 1
58453 51823 51876 1
58454 51825 51824 un
58455 51824 51863 1
58456 51824 51877 1
58457 51826 51825 1
58458 51825 51862 1
58459 51825 51878 1
58460 51826 51879 1
58461 51826 51880 1
58462 51828 51827 un
58463 51827 51865 1
58464 51829 51828 un
58465 51828 51834 1
58466 51830 51829 un
58467 51829 51831 1
58468 51830 51864 1
58469 51832 51831 1
58470 51831 51867 2
58471 51833 51832 un
58472 51832 51838 un
58473 51834 51833 1
58474 51833 51835 1
58475 51834 51866 2
58476 51836 51835 1
58477 51835 51881 1
58478 51835 51882 1
58479 51837 51836 1
58480 51836 51883 1
58481 51836 51884 1
58482 51838 51837 un
58483 51837 51842 un
58484 51838 51839 un
58485 51840 51839 un
58486 51841 51840 un
58487 51840 51849 un
58488 51842 51841 un
58489 51841 51846 1
58490 51842 51843 1
58491 51844 51843 1
58492 51843 51885 1
58493 51843 51886 1
58494 51845 51844 1
58495 51844 51887 1
58496 51844 51888 1
58497 51846 51845 1
58498 51845 51889 1
58499 51845 51890 1
58500 51846 51847 1
58501 51846 51891 1
58502 51848 51847 1
58503 51847 51892 1
58504 51847 51893 1
58505 51849 51848 un
58506 51848 51853 un
58507 51849 51850 un
58508 51851 51850 un
58509 51850 51894 1
58510 51852 51851 un
58511 51851 51895 1
58512 51853 51852 un
58513 51852 51869 1
58514 51853 51868 1
58515 51854 51855 1
58516 51854 51896 1
58517 51854 51897 1
58518 51855 51898 1
58519 51855 51899 1
58520 51855 51900 1
58521 51856 51901 1
58522 51856 51902 1
58523 51856 51903 1
58524 51857 51904 1
58525 51857 51905 1
58526 51857 51906 1
58527 51858 51907 1
58528 51858 51908 1
58529 51858 51909 1
58530 51859 51910 1
58531 51859 51911 1
58532 51859 51912 1
58533 51860 51913 1
58534 51860 51914 1
58535 51860 51915 1
58536 51861 51916 1
58537 51862 51917 1
58538 51862 51918 1
58539 51862 51919 1
58540 51863 51920 1
58541 51863 51921 1
58542 51863 51922 1
58543 51864 51923 1
58544 51865 51924 1
58545 51868 51925 1
58546 51868 51926 1
58547 51868 51927 1
58548 51869 51928 1
58549 51869 51929 1
58550 51869 51930 1
58551 51931 51932 un
58552 51931 51936 un
58553 51931 51986 1
58554 51933 51932 un
58555 51932 51988 1
58556 51934 51933 un
58557 51933 51940 1
58558 51935 51934 un
58559 51934 51937 1
58560 51936 51935 un
58561 51935 51987 1
58562 51936 51984 1
58563 51938 51937 1
58564 51937 52000 1
58565 51937 52001 1
58566 51939 51938 un
58567 51938 51944 un
58568 51940 51939 1
58569 51939 51941 un
58570 51940 52002 1
58571 51940 52003 1
58572 51942 51941 un
58573 51941 51989 1
58574 51943 51942 un
58575 51942 51990 1
58576 51944 51943 un
58577 51943 51948 un
58578 51944 51945 un
58579 51946 51945 un
58580 51945 52004 1
58581 51947 51946 un
58582 51946 51952 un
58583 51948 51947 un
58584 51947 51949 1
58585 51948 51991 1
58586 51950 51949 1
58587 51949 51956 1
58588 51951 51950 1
58589 51950 51953 1
58590 51952 51951 un
58591 51951 51960 un
58592 51952 51957 un
58593 51954 51953 1
58594 51953 52005 1
58595 51953 52006 1
58596 51955 51954 un
58597 51954 51993 1
58598 51954 52007 1
58599 51956 51955 1
58600 51955 51992 1
58601 51955 52008 1
58602 51956 52009 1
58603 51956 52010 1
58604 51958 51957 un
58605 51957 51995 1
58606 51959 51958 un
58607 51958 51964 1
58608 51960 51959 un
58609 51959 51961 1
58610 51960 51994 1
58611 51962 51961 1
58612 51961 51997 2
58613 51963 51962 un
58614 51962 51968 un
58615 51964 51963 1
58616 51963 51965 1
58617 51964 51996 2
58618 51966 51965 1
58619 51965 52011 1
58620 51965 52012 1
58621 51967 51966 1
58622 51966 52013 1
58623 51966 52014 1
58624 51968 51967 un
58625 51967 51972 un
58626 51968 51969 un
58627 51970 51969 un
58628 51971 51970 un
58629 51970 51979 un
58630 51972 51971 un
58631 51971 51976 1
58632 51972 51973 1
58633 51974 51973 1
58634 51973 52015 1
58635 51973 52016 1
58636 51975 51974 1
58637 51974 52017 1
58638 51974 52018 1
58639 51976 51975 1
58640 51975 52019 1
58641 51975 52020 1
58642 51976 51977 1
58643 51976 52021 1
58644 51978 51977 1
58645 51977 52022 1
58646 51977 52023 1
58647 51979 51978 un
58648 51978 51983 un
58649 51979 51980 un
58650 51981 51980 un
58651 51980 52024 1
58652 51982 51981 un
58653 51981 52025 1
58654 51983 51982 un
58655 51982 51999 1
58656 51983 51998 1
58657 51984 51985 1
58658 51984 52026 1
58659 51984 52027 1
58660 51985 52028 1
58661 51985 52029 1
58662 51985 52030 1
58663 51986 52031 1
58664 51986 52032 1
58665 51986 52033 1
58666 51987 52034 1
58667 51987 52035 1
58668 51987 52036 1
58669 51988 52037 1
58670 51988 52038 1
58671 51988 52039 1
58672 51989 52040 1
58673 51989 52041 1
58674 51989 52042 1
58675 51990 52043 1
58676 51990 52044 1
58677 51990 52045 1
58678 51991 52046 1
58679 51992 52047 1
58680 51992 52048 1
58681 51992 52049 1
58682 51993 52050 1
58683 51993 52051 1
58684 51993 52052 1
58685 51994 52053 1
58686 51995 52054 1
58687 51998 52055 1
58688 51998 52056 1
58689 51998 52057 1
58690 51999 52058 1
58691 51999 52059 1
58692 51999 52060 1
58693 52061 52062 un
58694 52061 52066 un
58695 52061 52116 1
58696 52063 52062 un
58697 52062 52118 1
58698 52064 52063 un
58699 52063 52070 1
58700 52065 52064 un
58701 52064 52067 1
58702 52066 52065 un
58703 52065 52117 1
58704 52066 52114 1
58705 52068 52067 1
58706 52067 52130 1
58707 52067 52131 1
58708 52069 52068 un
58709 52068 52074 un
58710 52070 52069 1
58711 52069 52071 un
58712 52070 52132 1
58713 52070 52133 1
58714 52072 52071 un
58715 52071 52119 1
58716 52073 52072 un
58717 52072 52120 1
58718 52074 52073 un
58719 52073 52078 un
58720 52074 52075 un
58721 52076 52075 un
58722 52075 52134 1
58723 52077 52076 un
58724 52076 52082 un
58725 52078 52077 un
58726 52077 52079 1
58727 52078 52121 1
58728 52080 52079 1
58729 52079 52086 1
58730 52081 52080 1
58731 52080 52083 1
58732 52082 52081 un
58733 52081 52090 un
58734 52082 52087 un
58735 52084 52083 1
58736 52083 52135 1
58737 52083 52136 1
58738 52085 52084 un
58739 52084 52123 1
58740 52084 52137 1
58741 52086 52085 1
58742 52085 52122 1
58743 52085 52138 1
58744 52086 52139 1
58745 52086 52140 1
58746 52088 52087 un
58747 52087 52125 1
58748 52089 52088 un
58749 52088 52094 1
58750 52090 52089 un
58751 52089 52091 1
58752 52090 52124 1
58753 52092 52091 1
58754 52091 52127 2
58755 52093 52092 un
58756 52092 52098 un
58757 52094 52093 1
58758 52093 52095 1
58759 52094 52126 2
58760 52096 52095 1
58761 52095 52141 1
58762 52095 52142 1
58763 52097 52096 1
58764 52096 52143 1
58765 52096 52144 1
58766 52098 52097 un
58767 52097 52102 un
58768 52098 52099 un
58769 52100 52099 un
58770 52101 52100 un
58771 52100 52109 un
58772 52102 52101 un
58773 52101 52106 1
58774 52102 52103 1
58775 52104 52103 1
58776 52103 52145 1
58777 52103 52146 1
58778 52105 52104 1
58779 52104 52147 1
58780 52104 52148 1
58781 52106 52105 1
58782 52105 52149 1
58783 52105 52150 1
58784 52106 52107 1
58785 52106 52151 1
58786 52108 52107 1
58787 52107 52152 1
58788 52107 52153 1
58789 52109 52108 un
58790 52108 52113 un
58791 52109 52110 un
58792 52111 52110 un
58793 52110 52154 1
58794 52112 52111 un
58795 52111 52155 1
58796 52113 52112 un
58797 52112 52129 1
58798 52113 52128 1
58799 52114 52115 1
58800 52114 52156 1
58801 52114 52157 1
58802 52115 52158 1
58803 52115 52159 1
58804 52115 52160 1
58805 52116 52161 1
58806 52116 52162 1
58807 52116 52163 1
58808 52117 52164 1
58809 52117 52165 1
58810 52117 52166 1
58811 52118 52167 1
58812 52118 52168 1
58813 52118 52169 1
58814 52119 52170 1
58815 52119 52171 1
58816 52119 52172 1
58817 52120 52173 1
58818 52120 52174 1
58819 52120 52175 1
58820 52121 52176 1
58821 52122 52177 1
58822 52122 52178 1
58823 52122 52179 1
58824 52123 52180 1
58825 52123 52181 1
58826 52123 52182 1
58827 52124 52183 1
58828 52125 52184 1
58829 52128 52185 1
58830 52128 52186 1
58831 52128 52187 1
58832 52129 52188 1
58833 52129 52189 1
58834 52129 52190 1
58835 52191 52192 un
58836 52191 52196 un
58837 52191 52246 1
58838 52193 52192 un
58839 52192 52248 1
58840 52194 52193 un
58841 52193 52200 1
58842 52195 52194 un
58843 52194 52197 1
58844 52196 52195 un
58845 52195 52247 1
58846 52196 52244 1
58847 52198 52197 1
58848 52197 52260 1
58849 52197 52261 1
58850 52199 52198 un
58851 52198 52204 un
58852 52200 52199 1
58853 52199 52201 un
58854 52200 52262 1
58855 52200 52263 1
58856 52202 52201 un
58857 52201 52249 1
58858 52203 52202 un
58859 52202 52250 1
58860 52204 52203 un
58861 52203 52208 un
58862 52204 52205 un
58863 52206 52205 un
58864 52205 52264 1
58865 52207 52206 un
58866 52206 52212 un
58867 52208 52207 un
58868 52207 52209 1
58869 52208 52251 1
58870 52210 52209 1
58871 52209 52216 1
58872 52211 52210 1
58873 52210 52213 1
58874 52212 52211 un
58875 52211 52220 un
58876 52212 52217 un
58877 52214 52213 1
58878 52213 52265 1
58879 52213 52266 1
58880 52215 52214 un
58881 52214 52253 1
58882 52214 52267 1
58883 52216 52215 1
58884 52215 52252 1
58885 52215 52268 1
58886 52216 52269 1
58887 52216 52270 1
58888 52218 52217 un
58889 52217 52255 1
58890 52219 52218 un
58891 52218 52224 1
58892 52220 52219 un
58893 52219 52221 1
58894 52220 52254 1
58895 52222 52221 1
58896 52221 52257 2
58897 52223 52222 un
58898 52222 52228 un
58899 52224 52223 1
58900 52223 52225 1
58901 52224 52256 2
58902 52226 52225 1
58903 52225 52271 1
58904 52225 52272 1
58905 52227 52226 1
58906 52226 52273 1
58907 52226 52274 1
58908 52228 52227 un
58909 52227 52232 un
58910 52228 52229 un
58911 52230 52229 un
58912 52231 52230 un
58913 52230 52239 un
58914 52232 52231 un
58915 52231 52236 1
58916 52232 52233 1
58917 52234 52233 1
58918 52233 52275 1
58919 52233 52276 1
58920 52235 52234 1
58921 52234 52277 1
58922 52234 52278 1
58923 52236 52235 1
58924 52235 52279 1
58925 52235 52280 1
58926 52236 52237 1
58927 52236 52281 1
58928 52238 52237 1
58929 52237 52282 1
58930 52237 52283 1
58931 52239 52238 un
58932 52238 52243 un
58933 52239 52240 un
58934 52241 52240 un
58935 52240 52284 1
58936 52242 52241 un
58937 52241 52285 1
58938 52243 52242 un
58939 52242 52259 1
58940 52243 52258 1
58941 52244 52245 1
58942 52244 52286 1
58943 52244 52287 1
58944 52245 52288 1
58945 52245 52289 1
58946 52245 52290 1
58947 52246 52291 1
58948 52246 52292 1
58949 52246 52293 1
58950 52247 52294 1
58951 52247 52295 1
58952 52247 52296 1
58953 52248 52297 1
58954 52248 52298 1
58955 52248 52299 1
58956 52249 52300 1
58957 52249 52301 1
58958 52249 52302 1
58959 52250 52303 1
58960 52250 52304 1
58961 52250 52305 1
58962 52251 52306 1
58963 52252 52307 1
58964 52252 52308 1
58965 52252 52309 1
58966 52253 52310 1
58967 52253 52311 1
58968 52253 52312 1
58969 52254 52313 1
58970 52255 52314 1
58971 52258 52315 1
58972 52258 52316 1
58973 52258 52317 1
58974 52259 52318 1
58975 52259 52319 1
58976 52259 52320 1
58977 52321 52322 un
58978 52321 52326 un
58979 52321 52376 1
58980 52323 52322 un
58981 52322 52378 1
58982 52324 52323 un
58983 52323 52330 1
58984 52325 52324 un
58985 52324 52327 1
58986 52326 52325 un
58987 52325 52377 1
58988 52326 52374 1
58989 52328 52327 1
58990 52327 52390 1
58991 52327 52391 1
58992 52329 52328 un
58993 52328 52334 un
58994 52330 52329 1
58995 52329 52331 un
58996 52330 52392 1
58997 52330 52393 1
58998 52332 52331 un
58999 52331 52379 1
59000 52333 52332 un
59001 52332 52380 1
59002 52334 52333 un
59003 52333 52338 un
59004 52334 52335 un
59005 52336 52335 un
59006 52335 52394 1
59007 52337 52336 un
59008 52336 52342 un
59009 52338 52337 un
59010 52337 52339 1
59011 52338 52381 1
59012 52340 52339 1
59013 52339 52346 1
59014 52341 52340 1
59015 52340 52343 1
59016 52342 52341 un
59017 52341 52350 un
59018 52342 52347 un
59019 52344 52343 1
59020 52343 52395 1
59021 52343 52396 1
59022 52345 52344 un
59023 52344 52383 1
59024 52344 52397 1
59025 52346 52345 1
59026 52345 52382 1
59027 52345 52398 1
59028 52346 52399 1
59029 52346 52400 1
59030 52348 52347 un
59031 52347 52385 1
59032 52349 52348 un
59033 52348 52354 1
59034 52350 52349 un
59035 52349 52351 1
59036 52350 52384 1
59037 52352 52351 1
59038 52351 52387 2
59039 52353 52352 un
59040 52352 52358 un
59041 52354 52353 1
59042 52353 52355 1
59043 52354 52386 2
59044 52356 52355 1
59045 52355 52401 1
59046 52355 52402 1
59047 52357 52356 1
59048 52356 52403 1
59049 52356 52404 1
59050 52358 52357 un
59051 52357 52362 un
59052 52358 52359 un
59053 52360 52359 un
59054 52361 52360 un
59055 52360 52369 un
59056 52362 52361 un
59057 52361 52366 1
59058 52362 52363 1
59059 52364 52363 1
59060 52363 52405 1
59061 52363 52406 1
59062 52365 52364 1
59063 52364 52407 1
59064 52364 52408 1
59065 52366 52365 1
59066 52365 52409 1
59067 52365 52410 1
59068 52366 52367 1
59069 52366 52411 1
59070 52368 52367 1
59071 52367 52412 1
59072 52367 52413 1
59073 52369 52368 un
59074 52368 52373 un
59075 52369 52370 un
59076 52371 52370 un
59077 52370 52414 1
59078 52372 52371 un
59079 52371 52415 1
59080 52373 52372 un
59081 52372 52389 1
59082 52373 52388 1
59083 52374 52375 1
59084 52374 52416 1
59085 52374 52417 1
59086 52375 52418 1
59087 52375 52419 1
59088 52375 52420 1
59089 52376 52421 1
59090 52376 52422 1
59091 52376 52423 1
59092 52377 52424 1
59093 52377 52425 1
59094 52377 52426 1
59095 52378 52427 1
59096 52378 52428 1
59097 52378 52429 1
59098 52379 52430 1
59099 52379 52431 1
59100 52379 52432 1
59101 52380 52433 1
59102 52380 52434 1
59103 52380 52435 1
59104 52381 52436 1
59105 52382 52437 1
59106 52382 52438 1
59107 52382 52439 1
59108 52383 52440 1
59109 52383 52441 1
59110 52383 52442 1
59111 52384 52443 1
59112 52385 52444 1
59113 52388 52445 1
59114 52388 52446 1
59115 52388 52447 1
59116 52389 52448 1
59117 52389 52449 1
59118 52389 52450 1
59119 52451 52452 un
59120 52451 52456 un
59121 52451 52506 1
59122 52453 52452 un
59123 52452 52508 1
59124 52454 52453 un
59125 52453 52460 1
59126 52455 52454 un
59127 52454 52457 1
59128 52456 52455 un
59129 52455 52507 1
59130 52456 52504 1
59131 52458 52457 1
59132 52457 52520 1
59133 52457 52521 1
59134 52459 52458 un
59135 52458 52464 un
59136 52460 52459 1
59137 52459 52461 un
59138 52460 52522 1
59139 52460 52523 1
59140 52462 52461 un
59141 52461 52509 1
59142 52463 52462 un
59143 52462 52510 1
59144 52464 52463 un
59145 52463 52468 un
59146 52464 52465 un
59147 52466 52465 un
59148 52465 52524 1
59149 52467 52466 un
59150 52466 52472 un
59151 52468 52467 un
59152 52467 52469 1
59153 52468 52511 1
59154 52470 52469 1
59155 52469 52476 1
59156 52471 52470 1
59157 52470 52473 1
59158 52472 52471 un
59159 52471 52480 un
59160 52472 52477 un
59161 52474 52473 1
59162 52473 52525 1
59163 52473 52526 1
59164 52475 52474 un
59165 52474 52513 1
59166 52474 52527 1
59167 52476 52475 1
59168 52475 52512 1
59169 52475 52528 1
59170 52476 52529 1
59171 52476 52530 1
59172 52478 52477 un
59173 52477 52515 1
59174 52479 52478 un
59175 52478 52484 1
59176 52480 52479 un
59177 52479 52481 1
59178 52480 52514 1
59179 52482 52481 1
59180 52481 52517 2
59181 52483 52482 un
59182 52482 52488 un
59183 52484 52483 1
59184 52483 52485 1
59185 52484 52516 2
59186 52486 52485 1
59187 52485 52531 1
59188 52485 52532 1
59189 52487 52486 1
59190 52486 52533 1
59191 52486 52534 1
59192 52488 52487 un
59193 52487 52492 un
59194 52488 52489 un
59195 52490 52489 un
59196 52491 52490 un
59197 52490 52499 un
59198 52492 52491 un
59199 52491 52496 1
59200 52492 52493 1
59201 52494 52493 1
59202 52493 52535 1
59203 52493 52536 1
59204 52495 52494 1
59205 52494 52537 1
59206 52494 52538 1
59207 52496 52495 1
59208 52495 52539 1
59209 52495 52540 1
59210 52496 52497 1
59211 52496 52541 1
59212 52498 52497 1
59213 52497 52542 1
59214 52497 52543 1
59215 52499 52498 un
59216 52498 52503 un
59217 52499 52500 un
59218 52501 52500 un
59219 52500 52544 1
59220 52502 52501 un
59221 52501 52545 1
59222 52503 52502 un
59223 52502 52519 1
59224 52503 52518 1
59225 52504 52505 1
59226 52504 52546 1
59227 52504 52547 1
59228 52505 52548 1
59229 52505 52549 1
59230 52505 52550 1
59231 52506 52551 1
59232 52506 52552 1
59233 52506 52553 1
59234 52507 52554 1
59235 52507 52555 1
59236 52507 52556 1
59237 52508 52557 1
59238 52508 52558 1
59239 52508 52559 1
59240 52509 52560 1
59241 52509 52561 1
59242 52509 52562 1
59243 52510 52563 1
59244 52510 52564 1
59245 52510 52565 1
59246 52511 52566 1
59247 52512 52567 1
59248 52512 52568 1
59249 52512 52569 1
59250 52513 52570 1
59251 52513 52571 1
59252 52513 52572 1
59253 52514 52573 1
59254 52515 52574 1
59255 52518 52575 1
59256 52518 52576 1
59257 52518 52577 1
59258 52519 52578 1
59259 52519 52579 1
59260 52519 52580 1
59261 52581 52582 am
59262 52586 52581 am
59263 52581 52633 1
59264 52582 52583 am
59265 52582 52641 1
59266 52583 52584 am
59267 52583 52589 1
59268 52584 52585 am
59269 52584 52587 1
59270 52585 52586 am
59271 52585 52642 1
59272 52586 52634 1
59273 52587 52588 am
59274 52587 52593 am
59275 52588 52589 1
59276 52588 52590 am
59277 52589 52643 1
59278 52589 52644 1
59279 52590 52591 am
59280 52590 52603 am
59281 52591 52592 am
59282 52591 52600 am
59283 52592 52593 am
59284 52592 52597 1
59285 52593 52594 1
59286 52594 52595 1
59287 52594 52645 1
59288 52594 52646 1
59289 52595 52596 1
59290 52595 52647 1
59291 52595 52648 1
59292 52596 52597 1
59293 52596 52649 1
59294 52596 52650 1
59295 52597 52598 am
59296 52598 52599 am
59297 52598 52607 1
59298 52599 52600 am
59299 52599 52604 1
59300 52600 52601 am
59301 52601 52602 am
59302 52601 52621 am
59303 52602 52603 am
59304 52602 52619 1
59305 52603 52635 1
59306 52604 52605 1
59307 52604 52651 1
59308 52604 52680 1
59309 52605 52606 am
59310 52605 52611 am
59311 52606 52607 1
59312 52606 52608 am
59313 52607 52652 1
59314 52607 52681 1
59315 52608 52609 am
59316 52608 52639 1
59317 52609 52610 am
59318 52609 52615 1
59319 52610 52611 am
59320 52610 52612 1
59321 52611 52616 am
59322 52612 52613 1
59323 52612 52618 am
59324 52613 52614 1
59325 52613 52653 1
59326 52613 52654 1
59327 52614 52615 1
59328 52614 52655 1
59329 52614 52656 1
59330 52615 52657 1
59331 52615 52658 1
59332 52616 52617 am
59333 52616 52659 1
59334 52617 52618 am
59335 52617 52638 1
59336 52618 52660 1
59337 52619 52620 1
59338 52619 52661 1
59339 52619 52662 1
59340 52620 52621 am
59341 52620 52625 am
59342 52621 52622 am
59343 52622 52623 am
59344 52622 52663 1
59345 52623 52624 am
59346 52623 52632 am
59347 52624 52625 am
59348 52624 52629 am
59349 52625 52626 am
59350 52626 52627 am
59351 52626 52664 1
59352 52627 52628 am
59353 52627 52636 1
59354 52628 52629 am
59355 52628 52665 1
59356 52629 52630 am
59357 52630 52631 am
59358 52630 52640 1
59359 52631 52632 am
59360 52631 52666 1
59361 52632 52667 1
59362 52633 52668 1
59363 52634 52669 1
59364 52634 52670 1
59365 52634 52671 1
59366 52635 52672 1
59367 52636 52637 1
59368 52636 52673 1
59369 52636 52682 1
59370 52637 52674 1
59371 52637 52675 1
59372 52637 52676 1
59373 52638 52677 1
59374 52639 52678 1
59375 52640 52679 1
59376 52683 52684 am
59377 52688 52683 am
59378 52683 52735 1
59379 52684 52685 am
59380 52684 52743 1
59381 52685 52686 am
59382 52685 52691 1
59383 52686 52687 am
59384 52686 52689 1
59385 52687 52688 am
59386 52687 52744 1
59387 52688 52736 1
59388 52689 52690 am
59389 52689 52695 am
59390 52690 52691 1
59391 52690 52692 am
59392 52691 52745 1
59393 52691 52746 1
59394 52692 52693 am
59395 52692 52705 am
59396 52693 52694 am
59397 52693 52702 am
59398 52694 52695 am
59399 52694 52699 1
59400 52695 52696 1
59401 52696 52697 1
59402 52696 52747 1
59403 52696 52748 1
59404 52697 52698 1
59405 52697 52749 1
59406 52697 52750 1
59407 52698 52699 1
59408 52698 52751 1
59409 52698 52752 1
59410 52699 52700 am
59411 52700 52701 am
59412 52700 52709 1
59413 52701 52702 am
59414 52701 52706 1
59415 52702 52703 am
59416 52703 52704 am
59417 52703 52723 am
59418 52704 52705 am
59419 52704 52721 1
59420 52705 52737 1
59421 52706 52707 1
59422 52706 52753 1
59423 52706 52782 1
59424 52707 52708 am
59425 52707 52713 am
59426 52708 52709 1
59427 52708 52710 am
59428 52709 52754 1
59429 52709 52783 1
59430 52710 52711 am
59431 52710 52741 1
59432 52711 52712 am
59433 52711 52717 1
59434 52712 52713 am
59435 52712 52714 1
59436 52713 52718 am
59437 52714 52715 1
59438 52714 52720 am
59439 52715 52716 1
59440 52715 52755 1
59441 52715 52756 1
59442 52716 52717 1
59443 52716 52757 1
59444 52716 52758 1
59445 52717 52759 1
59446 52717 52760 1
59447 52718 52719 am
59448 52718 52761 1
59449 52719 52720 am
59450 52719 52740 1
59451 52720 52762 1
59452 52721 52722 1
59453 52721 52763 1
59454 52721 52764 1
59455 52722 52723 am
59456 52722 52727 am
59457 52723 52724 am
59458 52724 52725 am
59459 52724 52765 1
59460 52725 52726 am
59461 52725 52734 am
59462 52726 52727 am
59463 52726 52731 am
59464 52727 52728 am
59465 52728 52729 am
59466 52728 52766 1
59467 52729 52730 am
59468 52729 52738 1
59469 52730 52731 am
59470 52730 52767 1
59471 52731 52732 am
59472 52732 52733 am
59473 52732 52742 1
59474 52733 52734 am
59475 52733 52768 1
59476 52734 52769 1
59477 52735 52770 1
59478 52736 52771 1
59479 52736 52772 1
59480 52736 52773 1
59481 52737 52774 1
59482 52738 52739 1
59483 52738 52775 1
59484 52738 52784 1
59485 52739 52776 1
59486 52739 52777 1
59487 52739 52778 1
59488 52740 52779 1
59489 52741 52780 1
59490 52742 52781 1
59491 52785 52786 am
59492 52790 52785 am
59493 52785 52837 1
59494 52786 52787 am
59495 52786 52845 1
59496 52787 52788 am
59497 52787 52793 1
59498 52788 52789 am
59499 52788 52791 1
59500 52789 52790 am
59501 52789 52846 1
59502 52790 52838 1
59503 52791 52792 am
59504 52791 52797 am
59505 52792 52793 1
59506 52792 52794 am
59507 52793 52847 1
59508 52793 52848 1
59509 52794 52795 am
59510 52794 52807 am
59511 52795 52796 am
59512 52795 52804 am
59513 52796 52797 am
59514 52796 52801 1
59515 52797 52798 1
59516 52798 52799 1
59517 52798 52849 1
59518 52798 52850 1
59519 52799 52800 1
59520 52799 52851 1
59521 52799 52852 1
59522 52800 52801 1
59523 52800 52853 1
59524 52800 52854 1
59525 52801 52802 am
59526 52802 52803 am
59527 52802 52811 1
59528 52803 52804 am
59529 52803 52808 1
59530 52804 52805 am
59531 52805 52806 am
59532 52805 52825 am
59533 52806 52807 am
59534 52806 52823 1
59535 52807 52839 1
59536 52808 52809 1
59537 52808 52855 1
59538 52808 52884 1
59539 52809 52810 am
59540 52809 52815 am
59541 52810 52811 1
59542 52810 52812 am
59543 52811 52856 1
59544 52811 52885 1
59545 52812 52813 am
59546 52812 52843 1
59547 52813 52814 am
59548 52813 52819 1
59549 52814 52815 am
59550 52814 52816 1
59551 52815 52820 am
59552 52816 52817 1
59553 52816 52822 am
59554 52817 52818 1
59555 52817 52857 1
59556 52817 52858 1
59557 52818 52819 1
59558 52818 52859 1
59559 52818 52860 1
59560 52819 52861 1
59561 52819 52862 1
59562 52820 52821 am
59563 52820 52863 1
59564 52821 52822 am
59565 52821 52842 1
59566 52822 52864 1
59567 52823 52824 1
59568 52823 52865 1
59569 52823 52866 1
59570 52824 52825 am
59571 52824 52829 am
59572 52825 52826 am
59573 52826 52827 am
59574 52826 52867 1
59575 52827 52828 am
59576 52827 52836 am
59577 52828 52829 am
59578 52828 52833 am
59579 52829 52830 am
59580 52830 52831 am
59581 52830 52868 1
59582 52831 52832 am
59583 52831 52840 1
59584 52832 52833 am
59585 52832 52869 1
59586 52833 52834 am
59587 52834 52835 am
59588 52834 52844 1
59589 52835 52836 am
59590 52835 52870 1
59591 52836 52871 1
59592 52837 52872 1
59593 52838 52873 1
59594 52838 52874 1
59595 52838 52875 1
59596 52839 52876 1
59597 52840 52841 1
59598 52840 52877 1
59599 52840 52886 1
59600 52841 52878 1
59601 52841 52879 1
59602 52841 52880 1
59603 52842 52881 1
59604 52843 52882 1
59605 52844 52883 1
59606 52887 52888 am
59607 52892 52887 am
59608 52887 52939 1
59609 52888 52889 am
59610 52888 52947 1
59611 52889 52890 am
59612 52889 52895 1
59613 52890 52891 am
59614 52890 52893 1
59615 52891 52892 am
59616 52891 52948 1
59617 52892 52940 1
59618 52893 52894 am
59619 52893 52899 am
59620 52894 52895 1
59621 52894 52896 am
59622 52895 52949 1
59623 52895 52950 1
59624 52896 52897 am
59625 52896 52909 am
59626 52897 52898 am
59627 52897 52906 am
59628 52898 52899 am
59629 52898 52903 1
59630 52899 52900 1
59631 52900 52901 1
59632 52900 52951 1
59633 52900 52952 1
59634 52901 52902 1
59635 52901 52953 1
59636 52901 52954 1
59637 52902 52903 1
59638 52902 52955 1
59639 52902 52956 1
59640 52903 52904 am
59641 52904 52905 am
59642 52904 52913 1
59643 52905 52906 am
59644 52905 52910 1
59645 52906 52907 am
59646 52907 52908 am
59647 52907 52927 am
59648 52908 52909 am
59649 52908 52925 1
59650 52909 52941 1
59651 52910 52911 1
59652 52910 52957 1
59653 52910 52986 1
59654 52911 52912 am
59655 52911 52917 am
59656 52912 52913 1
59657 52912 52914 am
59658 52913 52958 1
59659 52913 52987 1
59660 52914 52915 am
59661 52914 52945 1
59662 52915 52916 am
59663 52915 52921 1
59664 52916 52917 am
59665 52916 52918 1
59666 52917 52922 am
59667 52918 52919 1
59668 52918 52924 am
59669 52919 52920 1
59670 52919 52959 1
59671 52919 52960 1
59672 52920 52921 1
59673 52920 52961 1
59674 52920 52962 1
59675 52921 52963 1
59676 52921 52964 1
59677 52922 52923 am
59678 52922 52965 1
59679 52923 52924 am
59680 52923 52944 1
59681 52924 52966 1
59682 52925 52926 1
59683 52925 52967 1
59684 52925 52968 1
59685 52926 52927 am
59686 52926 52931 am
59687 52927 52928 am
59688 52928 52929 am
59689 52928 52969 1
59690 52929 52930 am
59691 52929 52938 am
59692 52930 52931 am
59693 52930 52935 am
59694 52931 52932 am
59695 52932 52933 am
59696 52932 52970 1
59697 52933 52934 am
59698 52933 52942 1
59699 52934 52935 am
59700 52934 52971 1
59701 52935 52936 am
59702 52936 52937 am
59703 52936 52946 1
59704 52937 52938 am
59705 52937 52972 1
59706 52938 52973 1
59707 52939 52974 1
59708 52940 52975 1
59709 52940 52976 1
59710 52940 52977 1
59711 52941 52978 1
59712 52942 52943 1
59713 52942 52979 1
59714 52942 52988 1
59715 52943 52980 1
59716 52943 52981 1
59717 52943 52982 1
59718 52944 52983 1
59719 52945 52984 1
59720 52946 52985 1
59721 52989 52990 am
59722 52994 52989 am
59723 52989 53041 1
59724 52990 52991 am
59725 52990 53049 1
59726 52991 52992 am
59727 52991 52997 1
59728 52992 52993 am
59729 52992 52995 1
59730 52993 52994 am
59731 52993 53050 1
59732 52994 53042 1
59733 52995 52996 am
59734 52995 53001 am
59735 52996 52997 1
59736 52996 52998 am
59737 52997 53051 1
59738 52997 53052 1
59739 52998 52999 am
59740 52998 53011 am
59741 52999 53000 am
59742 52999 53008 am
59743 53000 53001 am
59744 53000 53005 1
59745 53001 53002 1
59746 53002 53003 1
59747 53002 53053 1
59748 53002 53054 1
59749 53003 53004 1
59750 53003 53055 1
59751 53003 53056 1
59752 53004 53005 1
59753 53004 53057 1
59754 53004 53058 1
59755 53005 53006 am
59756 53006 53007 am
59757 53006 53015 1
59758 53007 53008 am
59759 53007 53012 1
59760 53008 53009 am
59761 53009 53010 am
59762 53009 53029 am
59763 53010 53011 am
59764 53010 53027 1
59765 53011 53043 1
59766 53012 53013 1
59767 53012 53059 1
59768 53012 53088 1
59769 53013 53014 am
59770 53013 53019 am
59771 53014 53015 1
59772 53014 53016 am
59773 53015 53060 1
59774 53015 53089 1
59775 53016 53017 am
59776 53016 53047 1
59777 53017 53018 am
59778 53017 53023 1
59779 53018 53019 am
59780 53018 53020 1
59781 53019 53024 am
59782 53020 53021 1
59783 53020 53026 am
59784 53021 53022 1
59785 53021 53061 1
59786 53021 53062 1
59787 53022 53023 1
59788 53022 53063 1
59789 53022 53064 1
59790 53023 53065 1
59791 53023 53066 1
59792 53024 53025 am
59793 53024 53067 1
59794 53025 53026 am
59795 53025 53046 1
59796 53026 53068 1
59797 53027 53028 1
59798 53027 53069 1
59799 53027 53070 1
59800 53028 53029 am
59801 53028 53033 am
59802 53029 53030 am
59803 53030 53031 am
59804 53030 53071 1
59805 53031 53032 am
59806 53031 53040 am
59807 53032 53033 am
59808 53032 53037 am
59809 53033 53034 am
59810 53034 53035 am
59811 53034 53072 1
59812 53035 53036 am
59813 53035 53044 1
59814 53036 53037 am
59815 53036 53073 1
59816 53037 53038 am
59817 53038 53039 am
59818 53038 53048 1
59819 53039 53040 am
59820 53039 53074 1
59821 53040 53075 1
59822 53041 53076 1
59823 53042 53077 1
59824 53042 53078 1
59825 53042 53079 1
59826 53043 53080 1
59827 53044 53045 1
59828 53044 53081 1
59829 53044 53090 1
59830 53045 53082 1
59831 53045 53083 1
59832 53045 53084 1
59833 53046 53085 1
59834 53047 53086 1
59835 53048 53087 1
59836 53091 53092 am
59837 53096 53091 am
59838 53091 53143 1
59839 53092 53093 am
59840 53092 53151 1
59841 53093 53094 am
59842 53093 53099 1
59843 53094 53095 am
59844 53094 53097 1
59845 53095 53096 am
59846 53095 53152 1
59847 53096 53144 1
59848 53097 53098 am
59849 53097 53103 am
59850 53098 53099 1
59851 53098 53100 am
59852 53099 53153 1
59853 53099 53154 1
59854 53100 53101 am
59855 53100 53113 am
59856 53101 53102 am
59857 53101 53110 am
59858 53102 53103 am
59859 53102 53107 1
59860 53103 53104 1
59861 53104 53105 1
59862 53104 53155 1
59863 53104 53156 1
59864 53105 53106 1
59865 53105 53157 1
59866 53105 53158 1
59867 53106 53107 1
59868 53106 53159 1
59869 53106 53160 1
59870 53107 53108 am
59871 53108 53109 am
59872 53108 53117 1
59873 53109 53110 am
59874 53109 53114 1
59875 53110 53111 am
59876 53111 53112 am
59877 53111 53131 am
59878 53112 53113 am
59879 53112 53129 1
59880 53113 53145 1
59881 53114 53115 1
59882 53114 53161 1
59883 53114 53190 1
59884 53115 53116 am
59885 53115 53121 am
59886 53116 53117 1
59887 53116 53118 am
59888 53117 53162 1
59889 53117 53191 1
59890 53118 53119 am
59891 53118 53149 1
59892 53119 53120 am
59893 53119 53125 1
59894 53120 53121 am
59895 53120 53122 1
59896 53121 53126 am
59897 53122 53123 1
59898 53122 53128 am
59899 53123 53124 1
59900 53123 53163 1
59901 53123 53164 1
59902 53124 53125 1
59903 53124 53165 1
59904 53124 53166 1
59905 53125 53167 1
59906 53125 53168 1
59907 53126 53127 am
59908 53126 53169 1
59909 53127 53128 am
59910 53127 53148 1
59911 53128 53170 1
59912 53129 53130 1
59913 53129 53171 1
59914 53129 53172 1
59915 53130 53131 am
59916 53130 53135 am
59917 53131 53132 am
59918 53132 53133 am
59919 53132 53173 1
59920 53133 53134 am
59921 53133 53142 am
59922 53134 53135 am
59923 53134 53139 am
59924 53135 53136 am
59925 53136 53137 am
59926 53136 53174 1
59927 53137 53138 am
59928 53137 53146 1
59929 53138 53139 am
59930 53138 53175 1
59931 53139 53140 am
59932 53140 53141 am
59933 53140 53150 1
59934 53141 53142 am
59935 53141 53176 1
59936 53142 53177 1
59937 53143 53178 1
59938 53144 53179 1
59939 53144 53180 1
59940 53144 53181 1
59941 53145 53182 1
59942 53146 53147 1
59943 53146 53183 1
59944 53146 53192 1
59945 53147 53184 1
59946 53147 53185 1
59947 53147 53186 1
59948 53148 53187 1
59949 53149 53188 1
59950 53150 53189 1
59951 53193 53194 am
59952 53198 53193 am
59953 53193 53245 1
59954 53194 53195 am
59955 53194 53253 1
59956 53195 53196 am
59957 53195 53201 1
59958 53196 53197 am
59959 53196 53199 1
59960 53197 53198 am
59961 53197 53254 1
59962 53198 53246 1
59963 53199 53200 am
59964 53199 53205 am
59965 53200 53201 1
59966 53200 53202 am
59967 53201 53255 1
59968 53201 53256 1
59969 53202 53203 am
59970 53202 53215 am
59971 53203 53204 am
59972 53203 53212 am
59973 53204 53205 am
59974 53204 53209 1
59975 53205 53206 1
59976 53206 53207 1
59977 53206 53257 1
59978 53206 53258 1
59979 53207 53208 1
59980 53207 53259 1
59981 53207 53260 1
59982 53208 53209 1
59983 53208 53261 1
59984 53208 53262 1
59985 53209 53210 am
59986 53210 53211 am
59987 53210 53219 1
59988 53211 53212 am
59989 53211 53216 1
59990 53212 53213 am
59991 53213 53214 am
59992 53213 53233 am
59993 53214 53215 am
59994 53214 53231 1
59995 53215 53247 1
59996 53216 53217 1
59997 53216 53263 1
59998 53216 53292 1
59999 53217 53218 am
60000 53217 53223 am
60001 53218 53219 1
60002 53218 53220 am
60003 53219 53264 1
60004 53219 53293 1
60005 53220 53221 am
60006 53220 53251 1
60007 53221 53222 am
60008 53221 53227 1
60009 53222 53223 am
60010 53222 53224 1
60011 53223 53228 am
60012 53224 53225 1
60013 53224 53230 am
60014 53225 53226 1
60015 53225 53265 1
60016 53225 53266 1
60017 53226 53227 1
60018 53226 53267 1
60019 53226 53268 1
60020 53227 53269 1
60021 53227 53270 1
60022 53228 53229 am
60023 53228 53271 1
60024 53229 53230 am
60025 53229 53250 1
60026 53230 53272 1
60027 53231 53232 1
60028 53231 53273 1
60029 53231 53274 1
60030 53232 53233 am
60031 53232 53237 am
60032 53233 53234 am
60033 53234 53235 am
60034 53234 53275 1
60035 53235 53236 am
60036 53235 53244 am
60037 53236 53237 am
60038 53236 53241 am
60039 53237 53238 am
60040 53238 53239 am
60041 53238 53276 1
60042 53239 53240 am
60043 53239 53248 1
60044 53240 53241 am
60045 53240 53277 1
60046 53241 53242 am
60047 53242 53243 am
60048 53242 53252 1
60049 53243 53244 am
60050 53243 53278 1
60051 53244 53279 1
60052 53245 53280 1
60053 53246 53281 1
60054 53246 53282 1
60055 53246 53283 1
60056 53247 53284 1
60057 53248 53249 1
60058 53248 53285 1
60059 53248 53294 1
60060 53249 53286 1
60061 53249 53287 1
60062 53249 53288 1
60063 53250 53289 1
60064 53251 53290 1
60065 53252 53291 1
60066 53295 53296 am
60067 53300 53295 am
60068 53295 53347 1
60069 53296 53297 am
60070 53296 53355 1
60071 53297 53298 am
60072 53297 53303 1
60073 53298 53299 am
60074 53298 53301 1
60075 53299 53300 am
60076 53299 53356 1
60077 53300 53348 1
60078 53301 53302 am
60079 53301 53307 am
60080 53302 53303 1
60081 53302 53304 am
60082 53303 53357 1
60083 53303 53358 1
60084 53304 53305 am
60085 53304 53317 am
60086 53305 53306 am
60087 53305 53314 am
60088 53306 53307 am
60089 53306 53311 1
60090 53307 53308 1
60091 53308 53309 1
60092 53308 53359 1
60093 53308 53360 1
60094 53309 53310 1
60095 53309 53361 1
60096 53309 53362 1
60097 53310 53311 1
60098 53310 53363 1
60099 53310 53364 1
60100 53311 53312 am
60101 53312 53313 am
60102 53312 53321 1
60103 53313 53314 am
60104 53313 53318 1
60105 53314 53315 am
60106 53315 53316 am
60107 53315 53335 am
60108 53316 53317 am
60109 53316 53333 1
60110 53317 53349 1
60111 53318 53319 1
60112 53318 53365 1
60113 53318 53394 1
60114 53319 53320 am
60115 53319 53325 am
60116 53320 53321 1
60117 53320 53322 am
60118 53321 53366 1
60119 53321 53395 1
60120 53322 53323 am
60121 53322 53353 1
60122 53323 53324 am
60123 53323 53329 1
60124 53324 53325 am
60125 53324 53326 1
60126 53325 53330 am
60127 53326 53327 1
60128 53326 53332 am
60129 53327 53328 1
60130 53327 53367 1
60131 53327 53368 1
60132 53328 53329 1
60133 53328 53369 1
60134 53328 53370 1
60135 53329 53371 1
60136 53329 53372 1
60137 53330 53331 am
60138 53330 53373 1
60139 53331 53332 am
60140 53331 53352 1
60141 53332 53374 1
60142 53333 53334 1
60143 53333 53375 1
60144 53333 53376 1
60145 53334 53335 am
60146 53334 53339 am
60147 53335 53336 am
60148 53336 53337 am
60149 53336 53377 1
60150 53337 53338 am
60151 53337 53346 am
60152 53338 53339 am
60153 53338 53343 am
60154 53339 53340 am
60155 53340 53341 am
60156 53340 53378 1
60157 53341 53342 am
60158 53341 53350 1
60159 53342 53343 am
60160 53342 53379 1
60161 53343 53344 am
60162 53344 53345 am
60163 53344 53354 1
60164 53345 53346 am
60165 53345 53380 1
60166 53346 53381 1
60167 53347 53382 1
60168 53348 53383 1
60169 53348 53384 1
60170 53348 53385 1
60171 53349 53386 1
60172 53350 53351 1
60173 53350 53387 1
60174 53350 53396 1
60175 53351 53388 1
60176 53351 53389 1
60177 53351 53390 1
60178 53352 53391 1
60179 53353 53392 1
60180 53354 53393 1
60181 53397 53398 am
60182 53402 53397 am
60183 53397 53449 1
60184 53398 53399 am
60185 53398 53457 1
60186 53399 53400 am
60187 53399 53405 1
60188 53400 53401 am
60189 53400 53403 1
60190 53401 53402 am
60191 53401 53458 1
60192 53402 53450 1
60193 53403 53404 am
60194 53403 53409 am
60195 53404 53405 1
60196 53404 53406 am
60197 53405 53459 1
60198 53405 53460 1
60199 53406 53407 am
60200 53406 53419 am
60201 53407 53408 am
60202 53407 53416 am
60203 53408 53409 am
60204 53408 53413 1
60205 53409 53410 1
60206 53410 53411 1
60207 53410 53461 1
60208 53410 53462 1
60209 53411 53412 1
60210 53411 53463 1
60211 53411 53464 1
60212 53412 53413 1
60213 53412 53465 1
60214 53412 53466 1
60215 53413 53414 am
60216 53414 53415 am
60217 53414 53423 1
60218 53415 53416 am
60219 53415 53420 1
60220 53416 53417 am
60221 53417 53418 am
60222 53417 53437 am
60223 53418 53419 am
60224 53418 53435 1
60225 53419 53451 1
60226 53420 53421 1
60227 53420 53467 1
60228 53420 53496 1
60229 53421 53422 am
60230 53421 53427 am
60231 53422 53423 1
60232 53422 53424 am
60233 53423 53468 1
60234 53423 53497 1
60235 53424 53425 am
60236 53424 53455 1
60237 53425 53426 am
60238 53425 53431 1
60239 53426 53427 am
60240 53426 53428 1
60241 53427 53432 am
60242 53428 53429 1
60243 53428 53434 am
60244 53429 53430 1
60245 53429 53469 1
60246 53429 53470 1
60247 53430 53431 1
60248 53430 53471 1
60249 53430 53472 1
60250 53431 53473 1
60251 53431 53474 1
60252 53432 53433 am
60253 53432 53475 1
60254 53433 53434 am
60255 53433 53454 1
60256 53434 53476 1
60257 53435 53436 1
60258 53435 53477 1
60259 53435 53478 1
60260 53436 53437 am
60261 53436 53441 am
60262 53437 53438 am
60263 53438 53439 am
60264 53438 53479 1
60265 53439 53440 am
60266 53439 53448 am
60267 53440 53441 am
60268 53440 53445 am
60269 53441 53442 am
60270 53442 53443 am
60271 53442 53480 1
60272 53443 53444 am
60273 53443 53452 1
60274 53444 53445 am
60275 53444 53481 1
60276 53445 53446 am
60277 53446 53447 am
60278 53446 53456 1
60279 53447 53448 am
60280 53447 53482 1
60281 53448 53483 1
60282 53449 53484 1
60283 53450 53485 1
60284 53450 53486 1
60285 53450 53487 1
60286 53451 53488 1
60287 53452 53453 1
60288 53452 53489 1
60289 53452 53498 1
60290 53453 53490 1
60291 53453 53491 1
60292 53453 53492 1
60293 53454 53493 1
60294 53455 53494 1
60295 53456 53495 1
60296 53499 53500 am
60297 53504 53499 am
60298 53499 53551 1
60299 53500 53501 am
60300 53500 53559 1
60301 53501 53502 am
60302 53501 53507 1
60303 53502 53503 am
60304 53502 53505 1
60305 53503 53504 am
60306 53503 53560 1
60307 53504 53552 1
60308 53505 53506 am
60309 53505 53511 am
60310 53506 53507 1
60311 53506 53508 am
60312 53507 53561 1
60313 53507 53562 1
60314 53508 53509 am
60315 53508 53521 am
60316 53509 53510 am
60317 53509 53518 am
60318 53510 53511 am
60319 53510 53515 1
60320 53511 53512 1
60321 53512 53513 1
60322 53512 53563 1
60323 53512 53564 1
60324 53513 53514 1
60325 53513 53565 1
60326 53513 53566 1
60327 53514 53515 1
60328 53514 53567 1
60329 53514 53568 1
60330 53515 53516 am
60331 53516 53517 am
60332 53516 53525 1
60333 53517 53518 am
60334 53517 53522 1
60335 53518 53519 am
60336 53519 53520 am
60337 53519 53539 am
60338 53520 53521 am
60339 53520 53537 1
60340 53521 53553 1
60341 53522 53523 1
60342 53522 53569 1
60343 53522 53598 1
60344 53523 53524 am
60345 53523 53529 am
60346 53524 53525 1
60347 53524 53526 am
60348 53525 53570 1
60349 53525 53599 1
60350 53526 53527 am
60351 53526 53557 1
60352 53527 53528 am
60353 53527 53533 1
60354 53528 53529 am
60355 53528 53530 1
60356 53529 53534 am
60357 53530 53531 1
60358 53530 53536 am
60359 53531 53532 1
60360 53531 53571 1
60361 53531 53572 1
60362 53532 53533 1
60363 53532 53573 1
60364 53532 53574 1
60365 53533 53575 1
60366 53533 53576 1
60367 53534 53535 am
60368 53534 53577 1
60369 53535 53536 am
60370 53535 53556 1
60371 53536 53578 1
60372 53537 53538 1
60373 53537 53579 1
60374 53537 53580 1
60375 53538 53539 am
60376 53538 53543 am
60377 53539 53540 am
60378 53540 53541 am
60379 53540 53581 1
60380 53541 53542 am
60381 53541 53550 am
60382 53542 53543 am
60383 53542 53547 am
60384 53543 53544 am
60385 53544 53545 am
60386 53544 53582 1
60387 53545 53546 am
60388 53545 53554 1
60389 53546 53547 am
60390 53546 53583 1
60391 53547 53548 am
60392 53548 53549 am
60393 53548 53558 1
60394 53549 53550 am
60395 53549 53584 1
60396 53550 53585 1
60397 53551 53586 1
60398 53552 53587 1
60399 53552 53588 1
60400 53552 53589 1
60401 53553 53590 1
60402 53554 53555 1
60403 53554 53591 1
60404 53554 53600 1
60405 53555 53592 1
60406 53555 53593 1
60407 53555 53594 1
60408 53556 53595 1
60409 53557 53596 1
60410 53558 53597 1
60411 53601 53602 am
60412 53606 53601 am
60413 53601 53653 1
60414 53602 53603 am
60415 53602 53661 1
60416 53603 53604 am
60417 53603 53609 1
60418 53604 53605 am
60419 53604 53607 1
60420 53605 53606 am
60421 53605 53662 1
60422 53606 53654 1
60423 53607 53608 am
60424 53607 53613 am
60425 53608 53609 1
60426 53608 53610 am
60427 53609 53663 1
60428 53609 53664 1
60429 53610 53611 am
60430 53610 53623 am
60431 53611 53612 am
60432 53611 53620 am
60433 53612 53613 am
60434 53612 53617 1
60435 53613 53614 1
60436 53614 53615 1
60437 53614 53665 1
60438 53614 53666 1
60439 53615 53616 1
60440 53615 53667 1
60441 53615 53668 1
60442 53616 53617 1
60443 53616 53669 1
60444 53616 53670 1
60445 53617 53618 am
60446 53618 53619 am
60447 53618 53627 1
60448 53619 53620 am
60449 53619 53624 1
60450 53620 53621 am
60451 53621 53622 am
60452 53621 53641 am
60453 53622 53623 am
60454 53622 53639 1
60455 53623 53655 1
60456 53624 53625 1
60457 53624 53671 1
60458 53624 53700 1
60459 53625 53626 am
60460 53625 53631 am
60461 53626 53627 1
60462 53626 53628 am
60463 53627 53672 1
60464 53627 53701 1
60465 53628 53629 am
60466 53628 53659 1
60467 53629 53630 am
60468 53629 53635 1
60469 53630 53631 am
60470 53630 53632 1
60471 53631 53636 am
60472 53632 53633 1
60473 53632 53638 am
60474 53633 53634 1
60475 53633 53673 1
60476 53633 53674 1
60477 53634 53635 1
60478 53634 53675 1
60479 53634 53676 1
60480 53635 53677 1
60481 53635 53678 1
60482 53636 53637 am
60483 53636 53679 1
60484 53637 53638 am
60485 53637 53658 1
60486 53638 53680 1
60487 53639 53640 1
60488 53639 53681 1
60489 53639 53682 1
60490 53640 53641 am
60491 53640 53645 am
60492 53641 53642 am
60493 53642 53643 am
60494 53642 53683 1
60495 53643 53644 am
60496 53643 53652 am
60497 53644 53645 am
60498 53644 53649 am
60499 53645 53646 am
60500 53646 53647 am
60501 53646 53684 1
60502 53647 53648 am
60503 53647 53656 1
60504 53648 53649 am
60505 53648 53685 1
60506 53649 53650 am
60507 53650 53651 am
60508 53650 53660 1
60509 53651 53652 am
60510 53651 53686 1
60511 53652 53687 1
60512 53653 53688 1
60513 53654 53689 1
60514 53654 53690 1
60515 53654 53691 1
60516 53655 53692 1
60517 53656 53657 1
60518 53656 53693 1
60519 53656 53702 1
60520 53657 53694 1
60521 53657 53695 1
60522 53657 53696 1
60523 53658 53697 1
60524 53659 53698 1
60525 53660 53699 1
60526 53703 53704 am
60527 53708 53703 am
60528 53703 53755 1
60529 53704 53705 am
60530 53704 53763 1
60531 53705 53706 am
60532 53705 53711 1
60533 53706 53707 am
60534 53706 53709 1
60535 53707 53708 am
60536 53707 53764 1
60537 53708 53756 1
60538 53709 53710 am
60539 53709 53715 am
60540 53710 53711 1
60541 53710 53712 am
60542 53711 53765 1
60543 53711 53766 1
60544 53712 53713 am
60545 53712 53725 am
60546 53713 53714 am
60547 53713 53722 am
60548 53714 53715 am
60549 53714 53719 1
60550 53715 53716 1
60551 53716 53717 1
60552 53716 53767 1
60553 53716 53768 1
60554 53717 53718 1
60555 53717 53769 1
60556 53717 53770 1
60557 53718 53719 1
60558 53718 53771 1
60559 53718 53772 1
60560 53719 53720 am
60561 53720 53721 am
60562 53720 53729 1
60563 53721 53722 am
60564 53721 53726 1
60565 53722 53723 am
60566 53723 53724 am
60567 53723 53743 am
60568 53724 53725 am
60569 53724 53741 1
60570 53725 53757 1
60571 53726 53727 1
60572 53726 53773 1
60573 53726 53802 1
60574 53727 53728 am
60575 53727 53733 am
60576 53728 53729 1
60577 53728 53730 am
60578 53729 53774 1
60579 53729 53803 1
60580 53730 53731 am
60581 53730 53761 1
60582 53731 53732 am
60583 53731 53737 1
60584 53732 53733 am
60585 53732 53734 1
60586 53733 53738 am
60587 53734 53735 1
60588 53734 53740 am
60589 53735 53736 1
60590 53735 53775 1
60591 53735 53776 1
60592 53736 53737 1
60593 53736 53777 1
60594 53736 53778 1
60595 53737 53779 1
60596 53737 53780 1
60597 53738 53739 am
60598 53738 53781 1
60599 53739 53740 am
60600 53739 53760 1
60601 53740 53782 1
60602 53741 53742 1
60603 53741 53783 1
60604 53741 53784 1
60605 53742 53743 am
60606 53742 53747 am
60607 53743 53744 am
60608 53744 53745 am
60609 53744 53785 1
60610 53745 53746 am
60611 53745 53754 am
60612 53746 53747 am
60613 53746 53751 am
60614 53747 53748 am
60615 53748 53749 am
60616 53748 53786 1
60617 53749 53750 am
60618 53749 53758 1
60619 53750 53751 am
60620 53750 53787 1
60621 53751 53752 am
60622 53752 53753 am
60623 53752 53762 1
60624 53753 53754 am
60625 53753 53788 1
60626 53754 53789 1
60627 53755 53790 1
60628 53756 53791 1
60629 53756 53792 1
60630 53756 53793 1
60631 53757 53794 1
60632 53758 53759 1
60633 53758 53795 1
60634 53758 53804 1
60635 53759 53796 1
60636 53759 53797 1
60637 53759 53798 1
60638 53760 53799 1
60639 53761 53800 1
60640 53762 53801 1
60641 53805 53806 am
60642 53810 53805 am
60643 53805 53857 1
60644 53806 53807 am
60645 53806 53865 1
60646 53807 53808 am
60647 53807 53813 1
60648 53808 53809 am
60649 53808 53811 1
60650 53809 53810 am
60651 53809 53866 1
60652 53810 53858 1
60653 53811 53812 am
60654 53811 53817 am
60655 53812 53813 1
60656 53812 53814 am
60657 53813 53867 1
60658 53813 53868 1
60659 53814 53815 am
60660 53814 53827 am
60661 53815 53816 am
60662 53815 53824 am
60663 53816 53817 am
60664 53816 53821 1
60665 53817 53818 1
60666 53818 53819 1
60667 53818 53869 1
60668 53818 53870 1
60669 53819 53820 1
60670 53819 53871 1
60671 53819 53872 1
60672 53820 53821 1
60673 53820 53873 1
60674 53820 53874 1
60675 53821 53822 am
60676 53822 53823 am
60677 53822 53831 1
60678 53823 53824 am
60679 53823 53828 1
60680 53824 53825 am
60681 53825 53826 am
60682 53825 53845 am
60683 53826 53827 am
60684 53826 53843 1
60685 53827 53859 1
60686 53828 53829 1
60687 53828 53875 1
60688 53828 53904 1
60689 53829 53830 am
60690 53829 53835 am
60691 53830 53831 1
60692 53830 53832 am
60693 53831 53876 1
60694 53831 53905 1
60695 53832 53833 am
60696 53832 53863 1
60697 53833 53834 am
60698 53833 53839 1
60699 53834 53835 am
60700 53834 53836 1
60701 53835 53840 am
60702 53836 53837 1
60703 53836 53842 am
60704 53837 53838 1
60705 53837 53877 1
60706 53837 53878 1
60707 53838 53839 1
60708 53838 53879 1
60709 53838 53880 1
60710 53839 53881 1
60711 53839 53882 1
60712 53840 53841 am
60713 53840 53883 1
60714 53841 53842 am
60715 53841 53862 1
60716 53842 53884 1
60717 53843 53844 1
60718 53843 53885 1
60719 53843 53886 1
60720 53844 53845 am
60721 53844 53849 am
60722 53845 53846 am
60723 53846 53847 am
60724 53846 53887 1
60725 53847 53848 am
60726 53847 53856 am
60727 53848 53849 am
60728 53848 53853 am
60729 53849 53850 am
60730 53850 53851 am
60731 53850 53888 1
60732 53851 53852 am
60733 53851 53860 1
60734 53852 53853 am
60735 53852 53889 1
60736 53853 53854 am
60737 53854 53855 am
60738 53854 53864 1
60739 53855 53856 am
60740 53855 53890 1
60741 53856 53891 1
60742 53857 53892 1
60743 53858 53893 1
60744 53858 53894 1
60745 53858 53895 1
60746 53859 53896 1
60747 53860 53861 1
60748 53860 53897 1
60749 53860 53906 1
60750 53861 53898 1
60751 53861 53899 1
60752 53861 53900 1
60753 53862 53901 1
60754 53863 53902 1
60755 53864 53903 1
60756 53907 53908 am
60757 53912 53907 am
60758 53907 53959 1
60759 53908 53909 am
60760 53908 53967 1
60761 53909 53910 am
60762 53909 53915 1
60763 53910 53911 am
60764 53910 53913 1
60765 53911 53912 am
60766 53911 53968 1
60767 53912 53960 1
60768 53913 53914 am
60769 53913 53919 am
60770 53914 53915 1
60771 53914 53916 am
60772 53915 53969 1
60773 53915 53970 1
60774 53916 53917 am
60775 53916 53929 am
60776 53917 53918 am
60777 53917 53926 am
60778 53918 53919 am
60779 53918 53923 1
60780 53919 53920 1
60781 53920 53921 1
60782 53920 53971 1
60783 53920 53972 1
60784 53921 53922 1
60785 53921 53973 1
60786 53921 53974 1
60787 53922 53923 1
60788 53922 53975 1
60789 53922 53976 1
60790 53923 53924 am
60791 53924 53925 am
60792 53924 53933 1
60793 53925 53926 am
60794 53925 53930 1
60795 53926 53927 am
60796 53927 53928 am
60797 53927 53947 am
60798 53928 53929 am
60799 53928 53945 1
60800 53929 53961 1
60801 53930 53931 1
60802 53930 53977 1
60803 53930 54006 1
60804 53931 53932 am
60805 53931 53937 am
60806 53932 53933 1
60807 53932 53934 am
60808 53933 53978 1
60809 53933 54007 1
60810 53934 53935 am
60811 53934 53965 1
60812 53935 53936 am
60813 53935 53941 1
60814 53936 53937 am
60815 53936 53938 1
60816 53937 53942 am
60817 53938 53939 1
60818 53938 53944 am
60819 53939 53940 1
60820 53939 53979 1
60821 53939 53980 1
60822 53940 53941 1
60823 53940 53981 1
60824 53940 53982 1
60825 53941 53983 1
60826 53941 53984 1
60827 53942 53943 am
60828 53942 53985 1
60829 53943 53944 am
60830 53943 53964 1
60831 53944 53986 1
60832 53945 53946 1
60833 53945 53987 1
60834 53945 53988 1
60835 53946 53947 am
60836 53946 53951 am
60837 53947 53948 am
60838 53948 53949 am
60839 53948 53989 1
60840 53949 53950 am
60841 53949 53958 am
60842 53950 53951 am
60843 53950 53955 am
60844 53951 53952 am
60845 53952 53953 am
60846 53952 53990 1
60847 53953 53954 am
60848 53953 53962 1
60849 53954 53955 am
60850 53954 53991 1
60851 53955 53956 am
60852 53956 53957 am
60853 53956 53966 1
60854 53957 53958 am
60855 53957 53992 1
60856 53958 53993 1
60857 53959 53994 1
60858 53960 53995 1
60859 53960 53996 1
60860 53960 53997 1
60861 53961 53998 1
60862 53962 53963 1
60863 53962 53999 1
60864 53962 54008 1
60865 53963 54000 1
60866 53963 54001 1
60867 53963 54002 1
60868 53964 54003 1
60869 53965 54004 1
60870 53966 54005 1
60871 54009 54010 am
60872 54014 54009 am
60873 54009 54061 1
60874 54010 54011 am
60875 54010 54069 1
60876 54011 54012 am
60877 54011 54017 1
60878 54012 54013 am
60879 54012 54015 1
60880 54013 54014 am
60881 54013 54070 1
60882 54014 54062 1
60883 54015 54016 am
60884 54015 54021 am
60885 54016 54017 1
60886 54016 54018 am
60887 54017 54071 1
60888 54017 54072 1
60889 54018 54019 am
60890 54018 54031 am
60891 54019 54020 am
60892 54019 54028 am
60893 54020 54021 am
60894 54020 54025 1
60895 54021 54022 1
60896 54022 54023 1
60897 54022 54073 1
60898 54022 54074 1
60899 54023 54024 1
60900 54023 54075 1
60901 54023 54076 1
60902 54024 54025 1
60903 54024 54077 1
60904 54024 54078 1
60905 54025 54026 am
60906 54026 54027 am
60907 54026 54035 1
60908 54027 54028 am
60909 54027 54032 1
60910 54028 54029 am
60911 54029 54030 am
60912 54029 54049 am
60913 54030 54031 am
60914 54030 54047 1
60915 54031 54063 1
60916 54032 54033 1
60917 54032 54079 1
60918 54032 54108 1
60919 54033 54034 am
60920 54033 54039 am
60921 54034 54035 1
60922 54034 54036 am
60923 54035 54080 1
60924 54035 54109 1
60925 54036 54037 am
60926 54036 54067 1
60927 54037 54038 am
60928 54037 54043 1
60929 54038 54039 am
60930 54038 54040 1
60931 54039 54044 am
60932 54040 54041 1
60933 54040 54046 am
60934 54041 54042 1
60935 54041 54081 1
60936 54041 54082 1
60937 54042 54043 1
60938 54042 54083 1
60939 54042 54084 1
60940 54043 54085 1
60941 54043 54086 1
60942 54044 54045 am
60943 54044 54087 1
60944 54045 54046 am
60945 54045 54066 1
60946 54046 54088 1
60947 54047 54048 1
60948 54047 54089 1
60949 54047 54090 1
60950 54048 54049 am
60951 54048 54053 am
60952 54049 54050 am
60953 54050 54051 am
60954 54050 54091 1
60955 54051 54052 am
60956 54051 54060 am
60957 54052 54053 am
60958 54052 54057 am
60959 54053 54054 am
60960 54054 54055 am
60961 54054 54092 1
60962 54055 54056 am
60963 54055 54064 1
60964 54056 54057 am
60965 54056 54093 1
60966 54057 54058 am
60967 54058 54059 am
60968 54058 54068 1
60969 54059 54060 am
60970 54059 54094 1
60971 54060 54095 1
60972 54061 54096 1
60973 54062 54097 1
60974 54062 54098 1
60975 54062 54099 1
60976 54063 54100 1
60977 54064 54065 1
60978 54064 54101 1
60979 54064 54110 1
60980 54065 54102 1
60981 54065 54103 1
60982 54065 54104 1
60983 54066 54105 1
60984 54067 54106 1
60985 54068 54107 1
60986 54111 54112 am
60987 54116 54111 am
60988 54111 54163 1
60989 54112 54113 am
60990 54112 54171 1
60991 54113 54114 am
60992 54113 54119 1
60993 54114 54115 am
60994 54114 54117 1
60995 54115 54116 am
60996 54115 54172 1
60997 54116 54164 1
60998 54117 54118 am
60999 54117 54123 am
61000 54118 54119 1
61001 54118 54120 am
61002 54119 54173 1
61003 54119 54174 1
61004 54120 54121 am
61005 54120 54133 am
61006 54121 54122 am
61007 54121 54130 am
61008 54122 54123 am
61009 54122 54127 1
61010 54123 54124 1
61011 54124 54125 1
61012 54124 54175 1
61013 54124 54176 1
61014 54125 54126 1
61015 54125 54177 1
61016 54125 54178 1
61017 54126 54127 1
61018 54126 54179 1
61019 54126 54180 1
61020 54127 54128 am
61021 54128 54129 am
61022 54128 54137 1
61023 54129 54130 am
61024 54129 54134 1
61025 54130 54131 am
61026 54131 54132 am
61027 54131 54151 am
61028 54132 54133 am
61029 54132 54149 1
61030 54133 54165 1
61031 54134 54135 1
61032 54134 54181 1
61033 54134 54210 1
61034 54135 54136 am
61035 54135 54141 am
61036 54136 54137 1
61037 54136 54138 am
61038 54137 54182 1
61039 54137 54211 1
61040 54138 54139 am
61041 54138 54169 1
61042 54139 54140 am
61043 54139 54145 1
61044 54140 54141 am
61045 54140 54142 1
61046 54141 54146 am
61047 54142 54143 1
61048 54142 54148 am
61049 54143 54144 1
61050 54143 54183 1
61051 54143 54184 1
61052 54144 54145 1
61053 54144 54185 1
61054 54144 54186 1
61055 54145 54187 1
61056 54145 54188 1
61057 54146 54147 am
61058 54146 54189 1
61059 54147 54148 am
61060 54147 54168 1
61061 54148 54190 1
61062 54149 54150 1
61063 54149 54191 1
61064 54149 54192 1
61065 54150 54151 am
61066 54150 54155 am
61067 54151 54152 am
61068 54152 54153 am
61069 54152 54193 1
61070 54153 54154 am
61071 54153 54162 am
61072 54154 54155 am
61073 54154 54159 am
61074 54155 54156 am
61075 54156 54157 am
61076 54156 54194 1
61077 54157 54158 am
61078 54157 54166 1
61079 54158 54159 am
61080 54158 54195 1
61081 54159 54160 am
61082 54160 54161 am
61083 54160 54170 1
61084 54161 54162 am
61085 54161 54196 1
61086 54162 54197 1
61087 54163 54198 1
61088 54164 54199 1
61089 54164 54200 1
61090 54164 54201 1
61091 54165 54202 1
61092 54166 54167 1
61093 54166 54203 1
61094 54166 54212 1
61095 54167 54204 1
61096 54167 54205 1
61097 54167 54206 1
61098 54168 54207 1
61099 54169 54208 1
61100 54170 54209 1
61101 54213 54214 am
61102 54218 54213 am
61103 54213 54265 1
61104 54214 54215 am
61105 54214 54273 1
61106 54215 54216 am
61107 54215 54221 1
61108 54216 54217 am
61109 54216 54219 1
61110 54217 54218 am
61111 54217 54274 1
61112 54218 54266 1
61113 54219 54220 am
61114 54219 54225 am
61115 54220 54221 1
61116 54220 54222 am
61117 54221 54275 1
61118 54221 54276 1
61119 54222 54223 am
61120 54222 54235 am
61121 54223 54224 am
61122 54223 54232 am
61123 54224 54225 am
61124 54224 54229 1
61125 54225 54226 1
61126 54226 54227 1
61127 54226 54277 1
61128 54226 54278 1
61129 54227 54228 1
61130 54227 54279 1
61131 54227 54280 1
61132 54228 54229 1
61133 54228 54281 1
61134 54228 54282 1
61135 54229 54230 am
61136 54230 54231 am
61137 54230 54239 1
61138 54231 54232 am
61139 54231 54236 1
61140 54232 54233 am
61141 54233 54234 am
61142 54233 54253 am
61143 54234 54235 am
61144 54234 54251 1
61145 54235 54267 1
61146 54236 54237 1
61147 54236 54283 1
61148 54236 54312 1
61149 54237 54238 am
61150 54237 54243 am
61151 54238 54239 1
61152 54238 54240 am
61153 54239 54284 1
61154 54239 54313 1
61155 54240 54241 am
61156 54240 54271 1
61157 54241 54242 am
61158 54241 54247 1
61159 54242 54243 am
61160 54242 54244 1
61161 54243 54248 am
61162 54244 54245 1
61163 54244 54250 am
61164 54245 54246 1
61165 54245 54285 1
61166 54245 54286 1
61167 54246 54247 1
61168 54246 54287 1
61169 54246 54288 1
61170 54247 54289 1
61171 54247 54290 1
61172 54248 54249 am
61173 54248 54291 1
61174 54249 54250 am
61175 54249 54270 1
61176 54250 54292 1
61177 54251 54252 1
61178 54251 54293 1
61179 54251 54294 1
61180 54252 54253 am
61181 54252 54257 am
61182 54253 54254 am
61183 54254 54255 am
61184 54254 54295 1
61185 54255 54256 am
61186 54255 54264 am
61187 54256 54257 am
61188 54256 54261 am
61189 54257 54258 am
61190 54258 54259 am
61191 54258 54296 1
61192 54259 54260 am
61193 54259 54268 1
61194 54260 54261 am
61195 54260 54297 1
61196 54261 54262 am
61197 54262 54263 am
61198 54262 54272 1
61199 54263 54264 am
61200 54263 54298 1
61201 54264 54299 1
61202 54265 54300 1
61203 54266 54301 1
61204 54266 54302 1
61205 54266 54303 1
61206 54267 54304 1
61207 54268 54269 1
61208 54268 54305 1
61209 54268 54314 1
61210 54269 54306 1
61211 54269 54307 1
61212 54269 54308 1
61213 54270 54309 1
61214 54271 54310 1
61215 54272 54311 1
61216 54315 54316 am
61217 54320 54315 am
61218 54315 54367 1
61219 54316 54317 am
61220 54316 54375 1
61221 54317 54318 am
61222 54317 54323 1
61223 54318 54319 am
61224 54318 54321 1
61225 54319 54320 am
61226 54319 54376 1
61227 54320 54368 1
61228 54321 54322 am
61229 54321 54327 am
61230 54322 54323 1
61231 54322 54324 am
61232 54323 54377 1
61233 54323 54378 1
61234 54324 54325 am
61235 54324 54337 am
61236 54325 54326 am
61237 54325 54334 am
61238 54326 54327 am
61239 54326 54331 1
61240 54327 54328 1
61241 54328 54329 1
61242 54328 54379 1
61243 54328 54380 1
61244 54329 54330 1
61245 54329 54381 1
61246 54329 54382 1
61247 54330 54331 1
61248 54330 54383 1
61249 54330 54384 1
61250 54331 54332 am
61251 54332 54333 am
61252 54332 54341 1
61253 54333 54334 am
61254 54333 54338 1
61255 54334 54335 am
61256 54335 54336 am
61257 54335 54355 am
61258 54336 54337 am
61259 54336 54353 1
61260 54337 54369 1
61261 54338 54339 1
61262 54338 54385 1
61263 54338 54414 1
61264 54339 54340 am
61265 54339 54345 am
61266 54340 54341 1
61267 54340 54342 am
61268 54341 54386 1
61269 54341 54415 1
61270 54342 54343 am
61271 54342 54373 1
61272 54343 54344 am
61273 54343 54349 1
61274 54344 54345 am
61275 54344 54346 1
61276 54345 54350 am
61277 54346 54347 1
61278 54346 54352 am
61279 54347 54348 1
61280 54347 54387 1
61281 54347 54388 1
61282 54348 54349 1
61283 54348 54389 1
61284 54348 54390 1
61285 54349 54391 1
61286 54349 54392 1
61287 54350 54351 am
61288 54350 54393 1
61289 54351 54352 am
61290 54351 54372 1
61291 54352 54394 1
61292 54353 54354 1
61293 54353 54395 1
61294 54353 54396 1
61295 54354 54355 am
61296 54354 54359 am
61297 54355 54356 am
61298 54356 54357 am
61299 54356 54397 1
61300 54357 54358 am
61301 54357 54366 am
61302 54358 54359 am
61303 54358 54363 am
61304 54359 54360 am
61305 54360 54361 am
61306 54360 54398 1
61307 54361 54362 am
61308 54361 54370 1
61309 54362 54363 am
61310 54362 54399 1
61311 54363 54364 am
61312 54364 54365 am
61313 54364 54374 1
61314 54365 54366 am
61315 54365 54400 1
61316 54366 54401 1
61317 54367 54402 1
61318 54368 54403 1
61319 54368 54404 1
61320 54368 54405 1
61321 54369 54406 1
61322 54370 54371 1
61323 54370 54407 1
61324 54370 54416 1
61325 54371 54408 1
61326 54371 54409 1
61327 54371 54410 1
61328 54372 54411 1
61329 54373 54412 1
61330 54374 54413 1
61331 54417 54418 am
61332 54422 54417 am
61333 54417 54469 1
61334 54418 54419 am
61335 54418 54477 1
61336 54419 54420 am
61337 54419 54425 1
61338 54420 54421 am
61339 54420 54423 1
61340 54421 54422 am
61341 54421 54478 1
61342 54422 54470 1
61343 54423 54424 am
61344 54423 54429 am
61345 54424 54425 1
61346 54424 54426 am
61347 54425 54479 1
61348 54425 54480 1
61349 54426 54427 am
61350 54426 54439 am
61351 54427 54428 am
61352 54427 54436 am
61353 54428 54429 am
61354 54428 54433 1
61355 54429 54430 1
61356 54430 54431 1
61357 54430 54481 1
61358 54430 54482 1
61359 54431 54432 1
61360 54431 54483 1
61361 54431 54484 1
61362 54432 54433 1
61363 54432 54485 1
61364 54432 54486 1
61365 54433 54434 am
61366 54434 54435 am
61367 54434 54443 1
61368 54435 54436 am
61369 54435 54440 1
61370 54436 54437 am
61371 54437 54438 am
61372 54437 54457 am
61373 54438 54439 am
61374 54438 54455 1
61375 54439 54471 1
61376 54440 54441 1
61377 54440 54487 1
61378 54440 54516 1
61379 54441 54442 am
61380 54441 54447 am
61381 54442 54443 1
61382 54442 54444 am
61383 54443 54488 1
61384 54443 54517 1
61385 54444 54445 am
61386 54444 54475 1
61387 54445 54446 am
61388 54445 54451 1
61389 54446 54447 am
61390 54446 54448 1
61391 54447 54452 am
61392 54448 54449 1
61393 54448 54454 am
61394 54449 54450 1
61395 54449 54489 1
61396 54449 54490 1
61397 54450 54451 1
61398 54450 54491 1
61399 54450 54492 1
61400 54451 54493 1
61401 54451 54494 1
61402 54452 54453 am
61403 54452 54495 1
61404 54453 54454 am
61405 54453 54474 1
61406 54454 54496 1
61407 54455 54456 1
61408 54455 54497 1
61409 54455 54498 1
61410 54456 54457 am
61411 54456 54461 am
61412 54457 54458 am
61413 54458 54459 am
61414 54458 54499 1
61415 54459 54460 am
61416 54459 54468 am
61417 54460 54461 am
61418 54460 54465 am
61419 54461 54462 am
61420 54462 54463 am
61421 54462 54500 1
61422 54463 54464 am
61423 54463 54472 1
61424 54464 54465 am
61425 54464 54501 1
61426 54465 54466 am
61427 54466 54467 am
61428 54466 54476 1
61429 54467 54468 am
61430 54467 54502 1
61431 54468 54503 1
61432 54469 54504 1
61433 54470 54505 1
61434 54470 54506 1
61435 54470 54507 1
61436 54471 54508 1
61437 54472 54473 1
61438 54472 54509 1
61439 54472 54518 1
61440 54473 54510 1
61441 54473 54511 1
61442 54473 54512 1
61443 54474 54513 1
61444 54475 54514 1
61445 54476 54515 1
61446 54519 54520 am
61447 54524 54519 am
61448 54519 54571 1
61449 54520 54521 am
61450 54520 54579 1
61451 54521 54522 am
61452 54521 54527 1
61453 54522 54523 am
61454 54522 54525 1
61455 54523 54524 am
61456 54523 54580 1
61457 54524 54572 1
61458 54525 54526 am
61459 54525 54531 am
61460 54526 54527 1
61461 54526 54528 am
61462 54527 54581 1
61463 54527 54582 1
61464 54528 54529 am
61465 54528 54541 am
61466 54529 54530 am
61467 54529 54538 am
61468 54530 54531 am
61469 54530 54535 1
61470 54531 54532 1
61471 54532 54533 1
61472 54532 54583 1
61473 54532 54584 1
61474 54533 54534 1
61475 54533 54585 1
61476 54533 54586 1
61477 54534 54535 1
61478 54534 54587 1
61479 54534 54588 1
61480 54535 54536 am
61481 54536 54537 am
61482 54536 54545 1
61483 54537 54538 am
61484 54537 54542 1
61485 54538 54539 am
61486 54539 54540 am
61487 54539 54559 am
61488 54540 54541 am
61489 54540 54557 1
61490 54541 54573 1
61491 54542 54543 1
61492 54542 54589 1
61493 54542 54618 1
61494 54543 54544 am
61495 54543 54549 am
61496 54544 54545 1
61497 54544 54546 am
61498 54545 54590 1
61499 54545 54619 1
61500 54546 54547 am
61501 54546 54577 1
61502 54547 54548 am
61503 54547 54553 1
61504 54548 54549 am
61505 54548 54550 1
61506 54549 54554 am
61507 54550 54551 1
61508 54550 54556 am
61509 54551 54552 1
61510 54551 54591 1
61511 54551 54592 1
61512 54552 54553 1
61513 54552 54593 1
61514 54552 54594 1
61515 54553 54595 1
61516 54553 54596 1
61517 54554 54555 am
61518 54554 54597 1
61519 54555 54556 am
61520 54555 54576 1
61521 54556 54598 1
61522 54557 54558 1
61523 54557 54599 1
61524 54557 54600 1
61525 54558 54559 am
61526 54558 54563 am
61527 54559 54560 am
61528 54560 54561 am
61529 54560 54601 1
61530 54561 54562 am
61531 54561 54570 am
61532 54562 54563 am
61533 54562 54567 am
61534 54563 54564 am
61535 54564 54565 am
61536 54564 54602 1
61537 54565 54566 am
61538 54565 54574 1
61539 54566 54567 am
61540 54566 54603 1
61541 54567 54568 am
61542 54568 54569 am
61543 54568 54578 1
61544 54569 54570 am
61545 54569 54604 1
61546 54570 54605 1
61547 54571 54606 1
61548 54572 54607 1
61549 54572 54608 1
61550 54572 54609 1
61551 54573 54610 1
61552 54574 54575 1
61553 54574 54611 1
61554 54574 54620 1
61555 54575 54612 1
61556 54575 54613 1
61557 54575 54614 1
61558 54576 54615 1
61559 54577 54616 1
61560 54578 54617 1
61561 54621 54622 1
61562 54621 54626 1
61563 54621 54768 1
61564 54621 54769 1
61565 54623 54622 1
61566 54622 54770 1
61567 54622 54771 1
61568 54624 54623 1
61569 54623 54630 1
61570 54623 54772 1
61571 54625 54624 1
61572 54624 54627 1
61573 54624 54773 1
61574 54626 54625 1
61575 54625 54774 1
61576 54625 54775 1
61577 54628 54627 1
61578 54627 54634 1
61579 54627 54776 1
61580 54629 54628 1
61581 54628 54631 1
61582 54628 54777 1
61583 54630 54629 1
61584 54629 54778 1
61585 54629 54779 1
61586 54630 54780 1
61587 54630 54781 1
61588 54632 54631 1
61589 54633 54632 1
61590 54632 54638 1
61591 54632 54782 1
61592 54634 54633 1
61593 54633 54635 1
61594 54633 54783 1
61595 54634 54784 1
61596 54634 54785 1
61597 54636 54635 1
61598 54635 54645 2
61599 54637 54636 1
61600 54636 54642 1
61601 54638 54637 1
61602 54637 54639 1
61603 54638 54650 1
61604 54638 54786 1
61605 54640 54639 1
61606 54639 54652 1
61607 54641 54640 1
61608 54640 54649 1
61609 54642 54641 1
61610 54641 54646 1
61611 54642 54643 1
61612 54644 54643 1
61613 54643 54787 1
61614 54643 54788 1
61615 54645 54644 1
61616 54644 54789 1
61617 54644 54790 1
61618 54645 54791 1
61619 54647 54646 1
61620 54648 54647 1
61621 54647 54683 1
61622 54649 54648 1
61623 54648 54667 1
61624 54649 54665 1
61625 54651 54650 1
61626 54650 54656 2
61627 54652 54651 1
61628 54651 54653 1
61629 54651 54792 1
61630 54652 54666 1
61631 54654 54653 2
61632 54653 54660 1
61633 54655 54654 1
61634 54654 54657 1
61635 54656 54655 1
61636 54655 54793 1
61637 54655 54794 1
61638 54656 54795 1
61639 54658 54657 1
61640 54657 54796 1
61641 54657 54797 1
61642 54659 54658 1
61643 54658 54798 1
61644 54658 54799 1
61645 54660 54659 2
61646 54659 54664 1
61647 54660 54661 1
61648 54662 54661 1
61649 54661 54800 1
61650 54661 54801 1
61651 54663 54662 1
61652 54662 54737 1
61653 54662 54802 1
61654 54664 54663 1
61655 54663 54803 1
61656 54663 54804 1
61657 54664 54805 1
61658 54664 54806 1
61659 54666 54665 1
61660 54665 54669 1
61661 54666 54807 1
61662 54668 54667 1
61663 54667 54673 1
61664 54669 54668 1
61665 54668 54670 1
61666 54671 54670 1
61667 54670 54808 1
61668 54672 54671 1
61669 54671 54677 1
61670 54673 54672 1
61671 54672 54674 1
61672 54673 54682 1
61673 54675 54674 1
61674 54674 54684 1
61675 54676 54675 1
61676 54675 54681 1
61677 54677 54676 1
61678 54676 54678 1
61679 54677 54809 1
61680 54679 54678 1
61681 54678 54694 1
61682 54680 54679 1
61683 54679 54691 1
61684 54681 54680 1
61685 54680 54688 1
61686 54681 54686 1
61687 54683 54682 1
61688 54682 54685 1
61689 54683 54810 1
61690 54685 54684 1
61691 54684 54687 1
61692 54685 54703 1
61693 54687 54686 1
61694 54686 54690 1
61695 54687 54705 1
61696 54689 54688 1
61697 54688 54721 1
61698 54690 54689 1
61699 54689 54716 1
61700 54690 54714 1
61701 54692 54691 1
61702 54693 54692 1
61703 54692 54698 1
61704 54692 54811 1
61705 54694 54693 1
61706 54693 54695 1
61707 54693 54812 1
61708 54694 54740 1
61709 54694 54813 1
61710 54696 54695 1
61711 54695 54814 1
61712 54695 54815 1
61713 54697 54696 1
61714 54696 54816 1
61715 54696 54817 1
61716 54698 54697 1
61717 54697 54702 1
61718 54697 54818 1
61719 54698 54699 1
61720 54698 54819 1
61721 54700 54699 1
61722 54699 54820 1
61723 54699 54821 1
61724 54701 54700 1
61725 54700 54822 1
61726 54700 54823 1
61727 54702 54701 1
61728 54701 54824 1
61729 54701 54825 1
61730 54702 54826 1
61731 54704 54703 1
61732 54703 54709 1
61733 54705 54704 1
61734 54704 54706 1
61735 54705 54715 1
61736 54707 54706 1
61737 54708 54707 1
61738 54707 54713 1
61739 54707 54827 1
61740 54709 54708 1
61741 54708 54710 1
61742 54708 54828 1
61743 54711 54710 1
61744 54710 54829 1
61745 54710 54830 1
61746 54712 54711 1
61747 54711 54831 1
61748 54711 54832 1
61749 54713 54712 1
61750 54712 54833 1
61751 54712 54834 1
61752 54713 54835 1
61753 54713 54836 1
61754 54715 54714 1
61755 54714 54718 1
61756 54715 54837 1
61757 54717 54716 1
61758 54716 54719 1
61759 54718 54717 1
61760 54717 54722 1
61761 54718 54838 1
61762 54720 54719 1
61763 54719 54724 1
61764 54721 54720 1
61765 54720 54725 1
61766 54721 54839 1
61767 54723 54722 1
61768 54724 54723 1
61769 54723 54734 1
61770 54724 54727 1
61771 54726 54725 1
61772 54725 54731 1
61773 54725 54840 1
61774 54727 54726 1
61775 54726 54728 1
61776 54726 54841 1
61777 54727 54732 1
61778 54729 54728 1
61779 54728 54735 1
61780 54728 54842 1
61781 54730 54729 1
61782 54729 54843 1
61783 54729 54844 1
61784 54731 54730 1
61785 54730 54845 1
61786 54730 54846 1
61787 54731 54847 1
61788 54731 54848 1
61789 54733 54732 1
61790 54732 54736 1
61791 54734 54733 1
61792 54733 54744 1
61793 54734 54741 1
61794 54735 54736 1
61795 54735 54759 1
61796 54736 54755 1
61797 54737 54738 1
61798 54737 54739 1
61799 54737 54849 1
61800 54738 54850 1
61801 54738 54851 1
61802 54738 54852 1
61803 54739 54853 1
61804 54739 54854 1
61805 54739 54855 1
61806 54740 54856 1
61807 54742 54741 1
61808 54741 54857 1
61809 54743 54742 1
61810 54742 54858 1
61811 54744 54743 1
61812 54743 54748 1
61813 54744 54745 1
61814 54746 54745 1
61815 54745 54755 1
61816 54747 54746 1
61817 54746 54752 1
61818 54748 54747 1
61819 54747 54749 1
61820 54748 54859 1
61821 54750 54749 1
61822 54749 54860 1
61823 54751 54750 1
61824 54750 54861 1
61825 54752 54751 1
61826 54751 54758 1
61827 54752 54753 1
61828 54754 54753 1
61829 54753 54756 1
61830 54755 54754 1
61831 54754 54760 1
61832 54757 54756 1
61833 54756 54761 1
61834 54758 54757 1
61835 54757 54862 1
61836 54758 54863 1
61837 54760 54759 1
61838 54759 54864 1
61839 54760 54762 1
61840 54762 54761 1
61841 54761 54766 1
61842 54762 54763 1
61843 54764 54763 1
61844 54763 54865 1
61845 54763 54866 1
61846 54765 54764 1
61847 54764 54867 1
61848 54764 54868 1
61849 54766 54765 1
61850 54765 54869 1
61851 54765 54870 1
61852 54766 54767 2
61853 54871 54872 1
61854 54871 54876 1
61855 54871 55018 1
61856 54871 55019 1
61857 54873 54872 1
61858 54872 55020 1
61859 54872 55021 1
61860 54874 54873 1
61861 54873 54880 1
61862 54873 55022 1
61863 54875 54874 1
61864 54874 54877 1
61865 54874 55023 1
61866 54876 54875 1
61867 54875 55024 1
61868 54875 55025 1
61869 54878 54877 1
61870 54877 54884 1
61871 54877 55026 1
61872 54879 54878 1
61873 54878 54881 1
61874 54878 55027 1
61875 54880 54879 1
61876 54879 55028 1
61877 54879 55029 1
61878 54880 55030 1
61879 54880 55031 1
61880 54882 54881 1
61881 54883 54882 1
61882 54882 54888 1
61883 54882 55032 1
61884 54884 54883 1
61885 54883 54885 1
61886 54883 55033 1
61887 54884 55034 1
61888 54884 55035 1
61889 54886 54885 1
61890 54885 54895 2
61891 54887 54886 1
61892 54886 54892 1
61893 54888 54887 1
61894 54887 54889 1
61895 54888 54900 1
61896 54888 55036 1
61897 54890 54889 1
61898 54889 54902 1
61899 54891 54890 1
61900 54890 54899 1
61901 54892 54891 1
61902 54891 54896 1
61903 54892 54893 1
61904 54894 54893 1
61905 54893 55037 1
61906 54893 55038 1
61907 54895 54894 1
61908 54894 55039 1
61909 54894 55040 1
61910 54895 55041 1
61911 54897 54896 1
61912 54898 54897 1
61913 54897 54933 1
61914 54899 54898 1
61915 54898 54917 1
61916 54899 54915 1
61917 54901 54900 1
61918 54900 54906 2
61919 54902 54901 1
61920 54901 54903 1
61921 54901 55042 1
61922 54902 54916 1
61923 54904 54903 2
61924 54903 54910 1
61925 54905 54904 1
61926 54904 54907 1
61927 54906 54905 1
61928 54905 55043 1
61929 54905 55044 1
61930 54906 55045 1
61931 54908 54907 1
61932 54907 55046 1
61933 54907 55047 1
61934 54909 54908 1
61935 54908 55048 1
61936 54908 55049 1
61937 54910 54909 2
61938 54909 54914 1
61939 54910 54911 1
61940 54912 54911 1
61941 54911 55050 1
61942 54911 55051 1
61943 54913 54912 1
61944 54912 54987 1
61945 54912 55052 1
61946 54914 54913 1
61947 54913 55053 1
61948 54913 55054 1
61949 54914 55055 1
61950 54914 55056 1
61951 54916 54915 1
61952 54915 54919 1
61953 54916 55057 1
61954 54918 54917 1
61955 54917 54923 1
61956 54919 54918 1
61957 54918 54920 1
61958 54921 54920 1
61959 54920 55058 1
61960 54922 54921 1
61961 54921 54927 1
61962 54923 54922 1
61963 54922 54924 1
61964 54923 54932 1
61965 54925 54924 1
61966 54924 54934 1
61967 54926 54925 1
61968 54925 54931 1
61969 54927 54926 1
61970 54926 54928 1
61971 54927 55059 1
61972 54929 54928 1
61973 54928 54944 1
61974 54930 54929 1
61975 54929 54941 1
61976 54931 54930 1
61977 54930 54938 1
61978 54931 54936 1
61979 54933 54932 1
61980 54932 54935 1
61981 54933 55060 1
61982 54935 54934 1
61983 54934 54937 1
61984 54935 54953 1
61985 54937 54936 1
61986 54936 54940 1
61987 54937 54955 1
61988 54939 54938 1
61989 54938 54971 1
61990 54940 54939 1
61991 54939 54966 1
61992 54940 54964 1
61993 54942 54941 1
61994 54943 54942 1
61995 54942 54948 1
61996 54942 55061 1
61997 54944 54943 1
61998 54943 54945 1
61999 54943 55062 1
62000 54944 54990 1
62001 54944 55063 1
62002 54946 54945 1
62003 54945 55064 1
62004 54945 55065 1
62005 54947 54946 1
62006 54946 55066 1
62007 54946 55067 1
62008 54948 54947 1
62009 54947 54952 1
62010 54947 55068 1
62011 54948 54949 1
62012 54948 55069 1
62013 54950 54949 1
62014 54949 55070 1
62015 54949 55071 1
62016 54951 54950 1
62017 54950 55072 1
62018 54950 55073 1
62019 54952 54951 1
62020 54951 55074 1
62021 54951 55075 1
62022 54952 55076 1
62023 54954 54953 1
62024 54953 54959 1
62025 54955 54954 1
62026 54954 54956 1
62027 54955 54965 1
62028 54957 54956 1
62029 54958 54957 1
62030 54957 54963 1
62031 54957 55077 1
62032 54959 54958 1
62033 54958 54960 1
62034 54958 55078 1
62035 54961 54960 1
62036 54960 55079 1
62037 54960 55080 1
62038 54962 54961 1
62039 54961 55081 1
62040 54961 55082 1
62041 54963 54962 1
62042 54962 55083 1
62043 54962 55084 1
62044 54963 55085 1
62045 54963 55086 1
62046 54965 54964 1
62047 54964 54968 1
62048 54965 55087 1
62049 54967 54966 1
62050 54966 54969 1
62051 54968 54967 1
62052 54967 54972 1
62053 54968 55088 1
62054 54970 54969 1
62055 54969 54974 1
62056 54971 54970 1
62057 54970 54975 1
62058 54971 55089 1
62059 54973 54972 1
62060 54974 54973 1
62061 54973 54984 1
62062 54974 54977 1
62063 54976 54975 1
62064 54975 54981 1
62065 54975 55090 1
62066 54977 54976 1
62067 54976 54978 1
62068 54976 55091 1
62069 54977 54982 1
62070 54979 54978 1
62071 54978 54985 1
62072 54978 55092 1
62073 54980 54979 1
62074 54979 55093 1
62075 54979 55094 1
62076 54981 54980 1
62077 54980 55095 1
62078 54980 55096 1
62079 54981 55097 1
62080 54981 55098 1
62081 54983 54982 1
62082 54982 54986 1
62083 54984 54983 1
62084 54983 54994 1
62085 54984 54991 1
62086 54985 54986 1
62087 54985 55009 1
62088 54986 55005 1
62089 54987 54988 1
62090 54987 54989 1
62091 54987 55099 1
62092 54988 55100 1
62093 54988 55101 1
62094 54988 55102 1
62095 54989 55103 1
62096 54989 55104 1
62097 54989 55105 1
62098 54990 55106 1
62099 54992 54991 1
62100 54991 55107 1
62101 54993 54992 1
62102 54992 55108 1
62103 54994 54993 1
62104 54993 54998 1
62105 54994 54995 1
62106 54996 54995 1
62107 54995 55005 1
62108 54997 54996 1
62109 54996 55002 1
62110 54998 54997 1
62111 54997 54999 1
62112 54998 55109 1
62113 55000 54999 1
62114 54999 55110 1
62115 55001 55000 1
62116 55000 55111 1
62117 55002 55001 1
62118 55001 55008 1
62119 55002 55003 1
62120 55004 55003 1
62121 55003 55006 1
62122 55005 55004 1
62123 55004 55010 1
62124 55007 55006 1
62125 55006 55011 1
62126 55008 55007 1
62127 55007 55112 1
62128 55008 55113 1
62129 55010 55009 1
62130 55009 55114 1
62131 55010 55012 1
62132 55012 55011 1
62133 55011 55016 1
62134 55012 55013 1
62135 55014 55013 1
62136 55013 55115 1
62137 55013 55116 1
62138 55015 55014 1
62139 55014 55117 1
62140 55014 55118 1
62141 55016 55015 1
62142 55015 55119 1
62143 55015 55120 1
62144 55016 55017 2
62145 55121 55122 1
62146 55121 55126 1
62147 55121 55268 1
62148 55121 55269 1
62149 55123 55122 1
62150 55122 55270 1
62151 55122 55271 1
62152 55124 55123 1
62153 55123 55130 1
62154 55123 55272 1
62155 55125 55124 1
62156 55124 55127 1
62157 55124 55273 1
62158 55126 55125 1
62159 55125 55274 1
62160 55125 55275 1
62161 55128 55127 1
62162 55127 55134 1
62163 55127 55276 1
62164 55129 55128 1
62165 55128 55131 1
62166 55128 55277 1
62167 55130 55129 1
62168 55129 55278 1
62169 55129 55279 1
62170 55130 55280 1
62171 55130 55281 1
62172 55132 55131 1
62173 55133 55132 1
62174 55132 55138 1
62175 55132 55282 1
62176 55134 55133 1
62177 55133 55135 1
62178 55133 55283 1
62179 55134 55284 1
62180 55134 55285 1
62181 55136 55135 1
62182 55135 55145 2
62183 55137 55136 1
62184 55136 55142 1
62185 55138 55137 1
62186 55137 55139 1
62187 55138 55150 1
62188 55138 55286 1
62189 55140 55139 1
62190 55139 55152 1
62191 55141 55140 1
62192 55140 55149 1
62193 55142 55141 1
62194 55141 55146 1
62195 55142 55143 1
62196 55144 55143 1
62197 55143 55287 1
62198 55143 55288 1
62199 55145 55144 1
62200 55144 55289 1
62201 55144 55290 1
62202 55145 55291 1
62203 55147 55146 1
62204 55148 55147 1
62205 55147 55183 1
62206 55149 55148 1
62207 55148 55167 1
62208 55149 55165 1
62209 55151 55150 1
62210 55150 55156 2
62211 55152 55151 1
62212 55151 55153 1
62213 55151 55292 1
62214 55152 55166 1
62215 55154 55153 2
62216 55153 55160 1
62217 55155 55154 1
62218 55154 55157 1
62219 55156 55155 1
62220 55155 55293 1
62221 55155 55294 1
62222 55156 55295 1
62223 55158 55157 1
62224 55157 55296 1
62225 55157 55297 1
62226 55159 55158 1
62227 55158 55298 1
62228 55158 55299 1
62229 55160 55159 2
62230 55159 55164 1
62231 55160 55161 1
62232 55162 55161 1
62233 55161 55300 1
62234 55161 55301 1
62235 55163 55162 1
62236 55162 55237 1
62237 55162 55302 1
62238 55164 55163 1
62239 55163 55303 1
62240 55163 55304 1
62241 55164 55305 1
62242 55164 55306 1
62243 55166 55165 1
62244 55165 55169 1
62245 55166 55307 1
62246 55168 55167 1
62247 55167 55173 1
62248 55169 55168 1
62249 55168 55170 1
62250 55171 55170 1
62251 55170 55308 1
62252 55172 55171 1
62253 55171 55177 1
62254 55173 55172 1
62255 55172 55174 1
62256 55173 55182 1
62257 55175 55174 1
62258 55174 55184 1
62259 55176 55175 1
62260 55175 55181 1
62261 55177 55176 1
62262 55176 55178 1
62263 55177 55309 1
62264 55179 55178 1
62265 55178 55194 1
62266 55180 55179 1
62267 55179 55191 1
62268 55181 55180 1
62269 55180 55188 1
62270 55181 55186 1
62271 55183 55182 1
62272 55182 55185 1
62273 55183 55310 1
62274 55185 55184 1
62275 55184 55187 1
62276 55185 55203 1
62277 55187 55186 1
62278 55186 55190 1
62279 55187 55205 1
62280 55189 55188 1
62281 55188 55221 1
62282 55190 55189 1
62283 55189 55216 1
62284 55190 55214 1
62285 55192 55191 1
62286 55193 55192 1
62287 55192 55198 1
62288 55192 55311 1
62289 55194 55193 1
62290 55193 55195 1
62291 55193 55312 1
62292 55194 55240 1
62293 55194 55313 1
62294 55196 55195 1
62295 55195 55314 1
62296 55195 55315 1
62297 55197 55196 1
62298 55196 55316 1
62299 55196 55317 1
62300 55198 55197 1
62301 55197 55202 1
62302 55197 55318 1
62303 55198 55199 1
62304 55198 55319 1
62305 55200 55199 1
62306 55199 55320 1
62307 55199 55321 1
62308 55201 55200 1
62309 55200 55322 1
62310 55200 55323 1
62311 55202 55201 1
62312 55201 55324 1
62313 55201 55325 1
62314 55202 55326 1
62315 55204 55203 1
62316 55203 55209 1
62317 55205 55204 1
62318 55204 55206 1
62319 55205 55215 1
62320 55207 55206 1
62321 55208 55207 1
62322 55207 55213 1
62323 55207 55327 1
62324 55209 55208 1
62325 55208 55210 1
62326 55208 55328 1
62327 55211 55210 1
62328 55210 55329 1
62329 55210 55330 1
62330 55212 55211 1
62331 55211 55331 1
62332 55211 55332 1
62333 55213 55212 1
62334 55212 55333 1
62335 55212 55334 1
62336 55213 55335 1
62337 55213 55336 1
62338 55215 55214 1
62339 55214 55218 1
62340 55215 55337 1
62341 55217 55216 1
62342 55216 55219 1
62343 55218 55217 1
62344 55217 55222 1
62345 55218 55338 1
62346 55220 55219 1
62347 55219 55224 1
62348 55221 55220 1
62349 55220 55225 1
62350 55221 55339 1
62351 55223 55222 1
62352 55224 55223 1
62353 55223 55234 1
62354 55224 55227 1
62355 55226 55225 1
62356 55225 55231 1
62357 55225 55340 1
62358 55227 55226 1
62359 55226 55228 1
62360 55226 55341 1
62361 55227 55232 1
62362 55229 55228 1
62363 55228 55235 1
62364 55228 55342 1
62365 55230 55229 1
62366 55229 55343 1
62367 55229 55344 1
62368 55231 55230 1
62369 55230 55345 1
62370 55230 55346 1
62371 55231 55347 1
62372 55231 55348 1
62373 55233 55232 1
62374 55232 55236 1
62375 55234 55233 1
62376 55233 55244 1
62377 55234 55241 1
62378 55235 55236 1
62379 55235 55259 1
62380 55236 55255 1
62381 55237 55238 1
62382 55237 55239 1
62383 55237 55349 1
62384 55238 55350 1
62385 55238 55351 1
62386 55238 55352 1
62387 55239 55353 1
62388 55239 55354 1
62389 55239 55355 1
62390 55240 55356 1
62391 55242 55241 1
62392 55241 55357 1
62393 55243 55242 1
62394 55242 55358 1
62395 55244 55243 1
62396 55243 55248 1
62397 55244 55245 1
62398 55246 55245 1
62399 55245 55255 1
62400 55247 55246 1
62401 55246 55252 1
62402 55248 55247 1
62403 55247 55249 1
62404 55248 55359 1
62405 55250 55249 1
62406 55249 55360 1
62407 55251 55250 1
62408 55250 55361 1
62409 55252 55251 1
62410 55251 55258 1
62411 55252 55253 1
62412 55254 55253 1
62413 55253 55256 1
62414 55255 55254 1
62415 55254 55260 1
62416 55257 55256 1
62417 55256 55261 1
62418 55258 55257 1
62419 55257 55362 1
62420 55258 55363 1
62421 55260 55259 1
62422 55259 55364 1
62423 55260 55262 1
62424 55262 55261 1
62425 55261 55266 1
62426 55262 55263 1
62427 55264 55263 1
62428 55263 55365 1
62429 55263 55366 1
62430 55265 55264 1
62431 55264 55367 1
62432 55264 55368 1
62433 55266 55265 1
62434 55265 55369 1
62435 55265 55370 1
62436 55266 55267 2
62437 55371 55372 1
62438 55371 55376 1
62439 55371 55518 1
62440 55371 55519 1
62441 55373 55372 1
62442 55372 55520 1
62443 55372 55521 1
62444 55374 55373 1
62445 55373 55380 1
62446 55373 55522 1
62447 55375 55374 1
62448 55374 55377 1
62449 55374 55523 1
62450 55376 55375 1
62451 55375 55524 1
62452 55375 55525 1
62453 55378 55377 1
62454 55377 55384 1
62455 55377 55526 1
62456 55379 55378 1
62457 55378 55381 1
62458 55378 55527 1
62459 55380 55379 1
62460 55379 55528 1
62461 55379 55529 1
62462 55380 55530 1
62463 55380 55531 1
62464 55382 55381 1
62465 55383 55382 1
62466 55382 55388 1
62467 55382 55532 1
62468 55384 55383 1
62469 55383 55385 1
62470 55383 55533 1
62471 55384 55534 1
62472 55384 55535 1
62473 55386 55385 1
62474 55385 55395 2
62475 55387 55386 1
62476 55386 55392 1
62477 55388 55387 1
62478 55387 55389 1
62479 55388 55400 1
62480 55388 55536 1
62481 55390 55389 1
62482 55389 55402 1
62483 55391 55390 1
62484 55390 55399 1
62485 55392 55391 1
62486 55391 55396 1
62487 55392 55393 1
62488 55394 55393 1
62489 55393 55537 1
62490 55393 55538 1
62491 55395 55394 1
62492 55394 55539 1
62493 55394 55540 1
62494 55395 55541 1
62495 55397 55396 1
62496 55398 55397 1
62497 55397 55433 1
62498 55399 55398 1
62499 55398 55417 1
62500 55399 55415 1
62501 55401 55400 1
62502 55400 55406 2
62503 55402 55401 1
62504 55401 55403 1
62505 55401 55542 1
62506 55402 55416 1
62507 55404 55403 2
62508 55403 55410 1
62509 55405 55404 1
62510 55404 55407 1
62511 55406 55405 1
62512 55405 55543 1
62513 55405 55544 1
62514 55406 55545 1
62515 55408 55407 1
62516 55407 55546 1
62517 55407 55547 1
62518 55409 55408 1
62519 55408 55548 1
62520 55408 55549 1
62521 55410 55409 2
62522 55409 55414 1
62523 55410 55411 1
62524 55412 55411 1
62525 55411 55550 1
62526 55411 55551 1
62527 55413 55412 1
62528 55412 55487 1
62529 55412 55552 1
62530 55414 55413 1
62531 55413 55553 1
62532 55413 55554 1
62533 55414 55555 1
62534 55414 55556 1
62535 55416 55415 1
62536 55415 55419 1
62537 55416 55557 1
62538 55418 55417 1
62539 55417 55423 1
62540 55419 55418 1
62541 55418 55420 1
62542 55421 55420 1
62543 55420 55558 1
62544 55422 55421 1
62545 55421 55427 1
62546 55423 55422 1
62547 55422 55424 1
62548 55423 55432 1
62549 55425 55424 1
62550 55424 55434 1
62551 55426 55425 1
62552 55425 55431 1
62553 55427 55426 1
62554 55426 55428 1
62555 55427 55559 1
62556 55429 55428 1
62557 55428 55444 1
62558 55430 55429 1
62559 55429 55441 1
62560 55431 55430 1
62561 55430 55438 1
62562 55431 55436 1
62563 55433 55432 1
62564 55432 55435 1
62565 55433 55560 1
62566 55435 55434 1
62567 55434 55437 1
62568 55435 55453 1
62569 55437 55436 1
62570 55436 55440 1
62571 55437 55455 1
62572 55439 55438 1
62573 55438 55471 1
62574 55440 55439 1
62575 55439 55466 1
62576 55440 55464 1
62577 55442 55441 1
62578 55443 55442 1
62579 55442 55448 1
62580 55442 55561 1
62581 55444 55443 1
62582 55443 55445 1
62583 55443 55562 1
62584 55444 55490 1
62585 55444 55563 1
62586 55446 55445 1
62587 55445 55564 1
62588 55445 55565 1
62589 55447 55446 1
62590 55446 55566 1
62591 55446 55567 1
62592 55448 55447 1
62593 55447 55452 1
62594 55447 55568 1
62595 55448 55449 1
62596 55448 55569 1
62597 55450 55449 1
62598 55449 55570 1
62599 55449 55571 1
62600 55451 55450 1
62601 55450 55572 1
62602 55450 55573 1
62603 55452 55451 1
62604 55451 55574 1
62605 55451 55575 1
62606 55452 55576 1
62607 55454 55453 1
62608 55453 55459 1
62609 55455 55454 1
62610 55454 55456 1
62611 55455 55465 1
62612 55457 55456 1
62613 55458 55457 1
62614 55457 55463 1
62615 55457 55577 1
62616 55459 55458 1
62617 55458 55460 1
62618 55458 55578 1
62619 55461 55460 1
62620 55460 55579 1
62621 55460 55580 1
62622 55462 55461 1
62623 55461 55581 1
62624 55461 55582 1
62625 55463 55462 1
62626 55462 55583 1
62627 55462 55584 1
62628 55463 55585 1
62629 55463 55586 1
62630 55465 55464 1
62631 55464 55468 1
62632 55465 55587 1
62633 55467 55466 1
62634 55466 55469 1
62635 55468 55467 1
62636 55467 55472 1
62637 55468 55588 1
62638 55470 55469 1
62639 55469 55474 1
62640 55471 55470 1
62641 55470 55475 1
62642 55471 55589 1
62643 55473 55472 1
62644 55474 55473 1
62645 55473 55484 1
62646 55474 55477 1
62647 55476 55475 1
62648 55475 55481 1
62649 55475 55590 1
62650 55477 55476 1
62651 55476 55478 1
62652 55476 55591 1
62653 55477 55482 1
62654 55479 55478 1
62655 55478 55485 1
62656 55478 55592 1
62657 55480 55479 1
62658 55479 55593 1
62659 55479 55594 1
62660 55481 55480 1
62661 55480 55595 1
62662 55480 55596 1
62663 55481 55597 1
62664 55481 55598 1
62665 55483 55482 1
62666 55482 55486 1
62667 55484 55483 1
62668 55483 55494 1
62669 55484 55491 1
62670 55485 55486 1
62671 55485 55509 1
62672 55486 55505 1
62673 55487 55488 1
62674 55487 55489 1
62675 55487 55599 1
62676 55488 55600 1
62677 55488 55601 1
62678 55488 55602 1
62679 55489 55603 1
62680 55489 55604 1
62681 55489 55605 1
62682 55490 55606 1
62683 55492 55491 1
62684 55491 55607 1
62685 55493 55492 1
62686 55492 55608 1
62687 55494 55493 1
62688 55493 55498 1
62689 55494 55495 1
62690 55496 55495 1
62691 55495 55505 1
62692 55497 55496 1
62693 55496 55502 1
62694 55498 55497 1
62695 55497 55499 1
62696 55498 55609 1
62697 55500 55499 1
62698 55499 55610 1
62699 55501 55500 1
62700 55500 55611 1
62701 55502 55501 1
62702 55501 55508 1
62703 55502 55503 1
62704 55504 55503 1
62705 55503 55506 1
62706 55505 55504 1
62707 55504 55510 1
62708 55507 55506 1
62709 55506 55511 1
62710 55508 55507 1
62711 55507 55612 1
62712 55508 55613 1
62713 55510 55509 1
62714 55509 55614 1
62715 55510 55512 1
62716 55512 55511 1
62717 55511 55516 1
62718 55512 55513 1
62719 55514 55513 1
62720 55513 55615 1
62721 55513 55616 1
62722 55515 55514 1
62723 55514 55617 1
62724 55514 55618 1
62725 55516 55515 1
62726 55515 55619 1
62727 55515 55620 1
62728 55516 55517 2
62729 55621 55622 1
62730 55621 55626 1
62731 55621 55768 1
62732 55621 55769 1
62733 55623 55622 1
62734 55622 55770 1
62735 55622 55771 1
62736 55624 55623 1
62737 55623 55630 1
62738 55623 55772 1
62739 55625 55624 1
62740 55624 55627 1
62741 55624 55773 1
62742 55626 55625 1
62743 55625 55774 1
62744 55625 55775 1
62745 55628 55627 1
62746 55627 55634 1
62747 55627 55776 1
62748 55629 55628 1
62749 55628 55631 1
62750 55628 55777 1
62751 55630 55629 1
62752 55629 55778 1
62753 55629 55779 1
62754 55630 55780 1
62755 55630 55781 1
62756 55632 55631 1
62757 55633 55632 1
62758 55632 55638 1
62759 55632 55782 1
62760 55634 55633 1
62761 55633 55635 1
62762 55633 55783 1
62763 55634 55784 1
62764 55634 55785 1
62765 55636 55635 1
62766 55635 55645 2
62767 55637 55636 1
62768 55636 55642 1
62769 55638 55637 1
62770 55637 55639 1
62771 55638 55650 1
62772 55638 55786 1
62773 55640 55639 1
62774 55639 55652 1
62775 55641 55640 1
62776 55640 55649 1
62777 55642 55641 1
62778 55641 55646 1
62779 55642 55643 1
62780 55644 55643 1
62781 55643 55787 1
62782 55643 55788 1
62783 55645 55644 1
62784 55644 55789 1
62785 55644 55790 1
62786 55645 55791 1
62787 55647 55646 1
62788 55648 55647 1
62789 55647 55683 1
62790 55649 55648 1
62791 55648 55667 1
62792 55649 55665 1
62793 55651 55650 1
62794 55650 55656 2
62795 55652 55651 1
62796 55651 55653 1
62797 55651 55792 1
62798 55652 55666 1
62799 55654 55653 2
62800 55653 55660 1
62801 55655 55654 1
62802 55654 55657 1
62803 55656 55655 1
62804 55655 55793 1
62805 55655 55794 1
62806 55656 55795 1
62807 55658 55657 1
62808 55657 55796 1
62809 55657 55797 1
62810 55659 55658 1
62811 55658 55798 1
62812 55658 55799 1
62813 55660 55659 2
62814 55659 55664 1
62815 55660 55661 1
62816 55662 55661 1
62817 55661 55800 1
62818 55661 55801 1
62819 55663 55662 1
62820 55662 55737 1
62821 55662 55802 1
62822 55664 55663 1
62823 55663 55803 1
62824 55663 55804 1
62825 55664 55805 1
62826 55664 55806 1
62827 55666 55665 1
62828 55665 55669 1
62829 55666 55807 1
62830 55668 55667 1
62831 55667 55673 1
62832 55669 55668 1
62833 55668 55670 1
62834 55671 55670 1
62835 55670 55808 1
62836 55672 55671 1
62837 55671 55677 1
62838 55673 55672 1
62839 55672 55674 1
62840 55673 55682 1
62841 55675 55674 1
62842 55674 55684 1
62843 55676 55675 1
62844 55675 55681 1
62845 55677 55676 1
62846 55676 55678 1
62847 55677 55809 1
62848 55679 55678 1
62849 55678 55694 1
62850 55680 55679 1
62851 55679 55691 1
62852 55681 55680 1
62853 55680 55688 1
62854 55681 55686 1
62855 55683 55682 1
62856 55682 55685 1
62857 55683 55810 1
62858 55685 55684 1
62859 55684 55687 1
62860 55685 55703 1
62861 55687 55686 1
62862 55686 55690 1
62863 55687 55705 1
62864 55689 55688 1
62865 55688 55721 1
62866 55690 55689 1
62867 55689 55716 1
62868 55690 55714 1
62869 55692 55691 1
62870 55693 55692 1
62871 55692 55698 1
62872 55692 55811 1
62873 55694 55693 1
62874 55693 55695 1
62875 55693 55812 1
62876 55694 55740 1
62877 55694 55813 1
62878 55696 55695 1
62879 55695 55814 1
62880 55695 55815 1
62881 55697 55696 1
62882 55696 55816 1
62883 55696 55817 1
62884 55698 55697 1
62885 55697 55702 1
62886 55697 55818 1
62887 55698 55699 1
62888 55698 55819 1
62889 55700 55699 1
62890 55699 55820 1
62891 55699 55821 1
62892 55701 55700 1
62893 55700 55822 1
62894 55700 55823 1
62895 55702 55701 1
62896 55701 55824 1
62897 55701 55825 1
62898 55702 55826 1
62899 55704 55703 1
62900 55703 55709 1
62901 55705 55704 1
62902 55704 55706 1
62903 55705 55715 1
62904 55707 55706 1
62905 55708 55707 1
62906 55707 55713 1
62907 55707 55827 1
62908 55709 55708 1
62909 55708 55710 1
62910 55708 55828 1
62911 55711 55710 1
62912 55710 55829 1
62913 55710 55830 1
62914 55712 55711 1
62915 55711 55831 1
62916 55711 55832 1
62917 55713 55712 1
62918 55712 55833 1
62919 55712 55834 1
62920 55713 55835 1
62921 55713 55836 1
62922 55715 55714 1
62923 55714 55718 1
62924 55715 55837 1
62925 55717 55716 1
62926 55716 55719 1
62927 55718 55717 1
62928 55717 55722 1
62929 55718 55838 1
62930 55720 55719 1
62931 55719 55724 1
62932 55721 55720 1
62933 55720 55725 1
62934 55721 55839 1
62935 55723 55722 1
62936 55724 55723 1
62937 55723 55734 1
62938 55724 55727 1
62939 55726 55725 1
62940 55725 55731 1
62941 55725 55840 1
62942 55727 55726 1
62943 55726 55728 1
62944 55726 55841 1
62945 55727 55732 1
62946 55729 55728 1
62947 55728 55735 1
62948 55728 55842 1
62949 55730 55729 1
62950 55729 55843 1
62951 55729 55844 1
62952 55731 55730 1
62953 55730 55845 1
62954 55730 55846 1
62955 55731 55847 1
62956 55731 55848 1
62957 55733 55732 1
62958 55732 55736 1
62959 55734 55733 1
62960 55733 55744 1
62961 55734 55741 1
62962 55735 55736 1
62963 55735 55759 1
62964 55736 55755 1
62965 55737 55738 1
62966 55737 55739 1
62967 55737 55849 1
62968 55738 55850 1
62969 55738 55851 1
62970 55738 55852 1
62971 55739 55853 1
62972 55739 55854 1
62973 55739 55855 1
62974 55740 55856 1
62975 55742 55741 1
62976 55741 55857 1
62977 55743 55742 1
62978 55742 55858 1
62979 55744 55743 1
62980 55743 55748 1
62981 55744 55745 1
62982 55746 55745 1
62983 55745 55755 1
62984 55747 55746 1
62985 55746 55752 1
62986 55748 55747 1
62987 55747 55749 1
62988 55748 55859 1
62989 55750 55749 1
62990 55749 55860 1
62991 55751 55750 1
62992 55750 55861 1
62993 55752 55751 1
62994 55751 55758 1
62995 55752 55753 1
62996 55754 55753 1
62997 55753 55756 1
62998 55755 55754 1
62999 55754 55760 1
63000 55757 55756 1
63001 55756 55761 1
63002 55758 55757 1
63003 55757 55862 1
63004 55758 55863 1
63005 55760 55759 1
63006 55759 55864 1
63007 55760 55762 1
63008 55762 55761 1
63009 55761 55766 1
63010 55762 55763 1
63011 55764 55763 1
63012 55763 55865 1
63013 55763 55866 1
63014 55765 55764 1
63015 55764 55867 1
63016 55764 55868 1
63017 55766 55765 1
63018 55765 55869 1
63019 55765 55870 1
63020 55766 55767 2
63021 55871 55872 1
63022 55871 55876 1
63023 55871 56018 1
63024 55871 56019 1
63025 55873 55872 1
63026 55872 56020 1
63027 55872 56021 1
63028 55874 55873 1
63029 55873 55880 1
63030 55873 56022 1
63031 55875 55874 1
63032 55874 55877 1
63033 55874 56023 1
63034 55876 55875 1
63035 55875 56024 1
63036 55875 56025 1
63037 55878 55877 1
63038 55877 55884 1
63039 55877 56026 1
63040 55879 55878 1
63041 55878 55881 1
63042 55878 56027 1
63043 55880 55879 1
63044 55879 56028 1
63045 55879 56029 1
63046 55880 56030 1
63047 55880 56031 1
63048 55882 55881 1
63049 55883 55882 1
63050 55882 55888 1
63051 55882 56032 1
63052 55884 55883 1
63053 55883 55885 1
63054 55883 56033 1
63055 55884 56034 1
63056 55884 56035 1
63057 55886 55885 1
63058 55885 55895 2
63059 55887 55886 1
63060 55886 55892 1
63061 55888 55887 1
63062 55887 55889 1
63063 55888 55900 1
63064 55888 56036 1
63065 55890 55889 1
63066 55889 55902 1
63067 55891 55890 1
63068 55890 55899 1
63069 55892 55891 1
63070 55891 55896 1
63071 55892 55893 1
63072 55894 55893 1
63073 55893 56037 1
63074 55893 56038 1
63075 55895 55894 1
63076 55894 56039 1
63077 55894 56040 1
63078 55895 56041 1
63079 55897 55896 1
63080 55898 55897 1
63081 55897 55933 1
63082 55899 55898 1
63083 55898 55917 1
63084 55899 55915 1
63085 55901 55900 1
63086 55900 55906 2
63087 55902 55901 1
63088 55901 55903 1
63089 55901 56042 1
63090 55902 55916 1
63091 55904 55903 2
63092 55903 55910 1
63093 55905 55904 1
63094 55904 55907 1
63095 55906 55905 1
63096 55905 56043 1
63097 55905 56044 1
63098 55906 56045 1
63099 55908 55907 1
63100 55907 56046 1
63101 55907 56047 1
63102 55909 55908 1
63103 55908 56048 1
63104 55908 56049 1
63105 55910 55909 2
63106 55909 55914 1
63107 55910 55911 1
63108 55912 55911 1
63109 55911 56050 1
63110 55911 56051 1
63111 55913 55912 1
63112 55912 55987 1
63113 55912 56052 1
63114 55914 55913 1
63115 55913 56053 1
63116 55913 56054 1
63117 55914 56055 1
63118 55914 56056 1
63119 55916 55915 1
63120 55915 55919 1
63121 55916 56057 1
63122 55918 55917 1
63123 55917 55923 1
63124 55919 55918 1
63125 55918 55920 1
63126 55921 55920 1
63127 55920 56058 1
63128 55922 55921 1
63129 55921 55927 1
63130 55923 55922 1
63131 55922 55924 1
63132 55923 55932 1
63133 55925 55924 1
63134 55924 55934 1
63135 55926 55925 1
63136 55925 55931 1
63137 55927 55926 1
63138 55926 55928 1
63139 55927 56059 1
63140 55929 55928 1
63141 55928 55944 1
63142 55930 55929 1
63143 55929 55941 1
63144 55931 55930 1
63145 55930 55938 1
63146 55931 55936 1
63147 55933 55932 1
63148 55932 55935 1
63149 55933 56060 1
63150 55935 55934 1
63151 55934 55937 1
63152 55935 55953 1
63153 55937 55936 1
63154 55936 55940 1
63155 55937 55955 1
63156 55939 55938 1
63157 55938 55971 1
63158 55940 55939 1
63159 55939 55966 1
63160 55940 55964 1
63161 55942 55941 1
63162 55943 55942 1
63163 55942 55948 1
63164 55942 56061 1
63165 55944 55943 1
63166 55943 55945 1
63167 55943 56062 1
63168 55944 55990 1
63169 55944 56063 1
63170 55946 55945 1
63171 55945 56064 1
63172 55945 56065 1
63173 55947 55946 1
63174 55946 56066 1
63175 55946 56067 1
63176 55948 55947 1
63177 55947 55952 1
63178 55947 56068 1
63179 55948 55949 1
63180 55948 56069 1
63181 55950 55949 1
63182 55949 56070 1
63183 55949 56071 1
63184 55951 55950 1
63185 55950 56072 1
63186 55950 56073 1
63187 55952 55951 1
63188 55951 56074 1
63189 55951 56075 1
63190 55952 56076 1
63191 55954 55953 1
63192 55953 55959 1
63193 55955 55954 1
63194 55954 55956 1
63195 55955 55965 1
63196 55957 55956 1
63197 55958 55957 1
63198 55957 55963 1
63199 55957 56077 1
63200 55959 55958 1
63201 55958 55960 1
63202 55958 56078 1
63203 55961 55960 1
63204 55960 56079 1
63205 55960 56080 1
63206 55962 55961 1
63207 55961 56081 1
63208 55961 56082 1
63209 55963 55962 1
63210 55962 56083 1
63211 55962 56084 1
63212 55963 56085 1
63213 55963 56086 1
63214 55965 55964 1
63215 55964 55968 1
63216 55965 56087 1
63217 55967 55966 1
63218 55966 55969 1
63219 55968 55967 1
63220 55967 55972 1
63221 55968 56088 1
63222 55970 55969 1
63223 55969 55974 1
63224 55971 55970 1
63225 55970 55975 1
63226 55971 56089 1
63227 55973 55972 1
63228 55974 55973 1
63229 55973 55984 1
63230 55974 55977 1
63231 55976 55975 1
63232 55975 55981 1
63233 55975 56090 1
63234 55977 55976 1
63235 55976 55978 1
63236 55976 56091 1
63237 55977 55982 1
63238 55979 55978 1
63239 55978 55985 1
63240 55978 56092 1
63241 55980 55979 1
63242 55979 56093 1
63243 55979 56094 1
63244 55981 55980 1
63245 55980 56095 1
63246 55980 56096 1
63247 55981 56097 1
63248 55981 56098 1
63249 55983 55982 1
63250 55982 55986 1
63251 55984 55983 1
63252 55983 55994 1
63253 55984 55991 1
63254 55985 55986 1
63255 55985 56009 1
63256 55986 56005 1
63257 55987 55988 1
63258 55987 55989 1
63259 55987 56099 1
63260 55988 56100 1
63261 55988 56101 1
63262 55988 56102 1
63263 55989 56103 1
63264 55989 56104 1
63265 55989 56105 1
63266 55990 56106 1
63267 55992 55991 1
63268 55991 56107 1
63269 55993 55992 1
63270 55992 56108 1
63271 55994 55993 1
63272 55993 55998 1
63273 55994 55995 1
63274 55996 55995 1
63275 55995 56005 1
63276 55997 55996 1
63277 55996 56002 1
63278 55998 55997 1
63279 55997 55999 1
63280 55998 56109 1
63281 56000 55999 1
63282 55999 56110 1
63283 56001 56000 1
63284 56000 56111 1
63285 56002 56001 1
63286 56001 56008 1
63287 56002 56003 1
63288 56004 56003 1
63289 56003 56006 1
63290 56005 56004 1
63291 56004 56010 1
63292 56007 56006 1
63293 56006 56011 1
63294 56008 56007 1
63295 56007 56112 1
63296 56008 56113 1
63297 56010 56009 1
63298 56009 56114 1
63299 56010 56012 1
63300 56012 56011 1
63301 56011 56016 1
63302 56012 56013 1
63303 56014 56013 1
63304 56013 56115 1
63305 56013 56116 1
63306 56015 56014 1
63307 56014 56117 1
63308 56014 56118 1
63309 56016 56015 1
63310 56015 56119 1
63311 56015 56120 1
63312 56016 56017 2
63313 56121 56122 1
63314 56121 56126 1
63315 56121 56268 1
63316 56121 56269 1
63317 56123 56122 1
63318 56122 56270 1
63319 56122 56271 1
63320 56124 56123 1
63321 56123 56130 1
63322 56123 56272 1
63323 56125 56124 1
63324 56124 56127 1
63325 56124 56273 1
63326 56126 56125 1
63327 56125 56274 1
63328 56125 56275 1
63329 56128 56127 1
63330 56127 56134 1
63331 56127 56276 1
63332 56129 56128 1
63333 56128 56131 1
63334 56128 56277 1
63335 56130 56129 1
63336 56129 56278 1
63337 56129 56279 1
63338 56130 56280 1
63339 56130 56281 1
63340 56132 56131 1
63341 56133 56132 1
63342 56132 56138 1
63343 56132 56282 1
63344 56134 56133 1
63345 56133 56135 1
63346 56133 56283 1
63347 56134 56284 1
63348 56134 56285 1
63349 56136 56135 1
63350 56135 56145 2
63351 56137 56136 1
63352 56136 56142 1
63353 56138 56137 1
63354 56137 56139 1
63355 56138 56150 1
63356 56138 56286 1
63357 56140 56139 1
63358 56139 56152 1
63359 56141 56140 1
63360 56140 56149 1
63361 56142 56141 1
63362 56141 56146 1
63363 56142 56143 1
63364 56144 56143 1
63365 56143 56287 1
63366 56143 56288 1
63367 56145 56144 1
63368 56144 56289 1
63369 56144 56290 1
63370 56145 56291 1
63371 56147 56146 1
63372 56148 56147 1
63373 56147 56183 1
63374 56149 56148 1
63375 56148 56167 1
63376 56149 56165 1
63377 56151 56150 1
63378 56150 56156 2
63379 56152 56151 1
63380 56151 56153 1
63381 56151 56292 1
63382 56152 56166 1
63383 56154 56153 2
63384 56153 56160 1
63385 56155 56154 1
63386 56154 56157 1
63387 56156 56155 1
63388 56155 56293 1
63389 56155 56294 1
63390 56156 56295 1
63391 56158 56157 1
63392 56157 56296 1
63393 56157 56297 1
63394 56159 56158 1
63395 56158 56298 1
63396 56158 56299 1
63397 56160 56159 2
63398 56159 56164 1
63399 56160 56161 1
63400 56162 56161 1
63401 56161 56300 1
63402 56161 56301 1
63403 56163 56162 1
63404 56162 56237 1
63405 56162 56302 1
63406 56164 56163 1
63407 56163 56303 1
63408 56163 56304 1
63409 56164 56305 1
63410 56164 56306 1
63411 56166 56165 1
63412 56165 56169 1
63413 56166 56307 1
63414 56168 56167 1
63415 56167 56173 1
63416 56169 56168 1
63417 56168 56170 1
63418 56171 56170 1
63419 56170 56308 1
63420 56172 56171 1
63421 56171 56177 1
63422 56173 56172 1
63423 56172 56174 1
63424 56173 56182 1
63425 56175 56174 1
63426 56174 56184 1
63427 56176 56175 1
63428 56175 56181 1
63429 56177 56176 1
63430 56176 56178 1
63431 56177 56309 1
63432 56179 56178 1
63433 56178 56194 1
63434 56180 56179 1
63435 56179 56191 1
63436 56181 56180 1
63437 56180 56188 1
63438 56181 56186 1
63439 56183 56182 1
63440 56182 56185 1
63441 56183 56310 1
63442 56185 56184 1
63443 56184 56187 1
63444 56185 56203 1
63445 56187 56186 1
63446 56186 56190 1
63447 56187 56205 1
63448 56189 56188 1
63449 56188 56221 1
63450 56190 56189 1
63451 56189 56216 1
63452 56190 56214 1
63453 56192 56191 1
63454 56193 56192 1
63455 56192 56198 1
63456 56192 56311 1
63457 56194 56193 1
63458 56193 56195 1
63459 56193 56312 1
63460 56194 56240 1
63461 56194 56313 1
63462 56196 56195 1
63463 56195 56314 1
63464 56195 56315 1
63465 56197 56196 1
63466 56196 56316 1
63467 56196 56317 1
63468 56198 56197 1
63469 56197 56202 1
63470 56197 56318 1
63471 56198 56199 1
63472 56198 56319 1
63473 56200 56199 1
63474 56199 56320 1
63475 56199 56321 1
63476 56201 56200 1
63477 56200 56322 1
63478 56200 56323 1
63479 56202 56201 1
63480 56201 56324 1
63481 56201 56325 1
63482 56202 56326 1
63483 56204 56203 1
63484 56203 56209 1
63485 56205 56204 1
63486 56204 56206 1
63487 56205 56215 1
63488 56207 56206 1
63489 56208 56207 1
63490 56207 56213 1
63491 56207 56327 1
63492 56209 56208 1
63493 56208 56210 1
63494 56208 56328 1
63495 56211 56210 1
63496 56210 56329 1
63497 56210 56330 1
63498 56212 56211 1
63499 56211 56331 1
63500 56211 56332 1
63501 56213 56212 1
63502 56212 56333 1
63503 56212 56334 1
63504 56213 56335 1
63505 56213 56336 1
63506 56215 56214 1
63507 56214 56218 1
63508 56215 56337 1
63509 56217 56216 1
63510 56216 56219 1
63511 56218 56217 1
63512 56217 56222 1
63513 56218 56338 1
63514 56220 56219 1
63515 56219 56224 1
63516 56221 56220 1
63517 56220 56225 1
63518 56221 56339 1
63519 56223 56222 1
63520 56224 56223 1
63521 56223 56234 1
63522 56224 56227 1
63523 56226 56225 1
63524 56225 56231 1
63525 56225 56340 1
63526 56227 56226 1
63527 56226 56228 1
63528 56226 56341 1
63529 56227 56232 1
63530 56229 56228 1
63531 56228 56235 1
63532 56228 56342 1
63533 56230 56229 1
63534 56229 56343 1
63535 56229 56344 1
63536 56231 56230 1
63537 56230 56345 1
63538 56230 56346 1
63539 56231 56347 1
63540 56231 56348 1
63541 56233 56232 1
63542 56232 56236 1
63543 56234 56233 1
63544 56233 56244 1
63545 56234 56241 1
63546 56235 56236 1
63547 56235 56259 1
63548 56236 56255 1
63549 56237 56238 1
63550 56237 56239 1
63551 56237 56349 1
63552 56238 56350 1
63553 56238 56351 1
63554 56238 56352 1
63555 56239 56353 1
63556 56239 56354 1
63557 56239 56355 1
63558 56240 56356 1
63559 56242 56241 1
63560 56241 56357 1
63561 56243 56242 1
63562 56242 56358 1
63563 56244 56243 1
63564 56243 56248 1
63565 56244 56245 1
63566 56246 56245 1
63567 56245 56255 1
63568 56247 56246 1
63569 56246 56252 1
63570 56248 56247 1
63571 56247 56249 1
63572 56248 56359 1
63573 56250 56249 1
63574 56249 56360 1
63575 56251 56250 1
63576 56250 56361 1
63577 56252 56251 1
63578 56251 56258 1
63579 56252 56253 1
63580 56254 56253 1
63581 56253 56256 1
63582 56255 56254 1
63583 56254 56260 1
63584 56257 56256 1
63585 56256 56261 1
63586 56258 56257 1
63587 56257 56362 1
63588 56258 56363 1
63589 56260 56259 1
63590 56259 56364 1
63591 56260 56262 1
63592 56262 56261 1
63593 56261 56266 1
63594 56262 56263 1
63595 56264 56263 1
63596 56263 56365 1
63597 56263 56366 1
63598 56265 56264 1
63599 56264 56367 1
63600 56264 56368 1
63601 56266 56265 1
63602 56265 56369 1
63603 56265 56370 1
63604 56266 56267 2
63605 56371 56372 1
63606 56371 56376 1
63607 56371 56518 1
63608 56371 56519 1
63609 56373 56372 1
63610 56372 56520 1
63611 56372 56521 1
63612 56374 56373 1
63613 56373 56380 1
63614 56373 56522 1
63615 56375 56374 1
63616 56374 56377 1
63617 56374 56523 1
63618 56376 56375 1
63619 56375 56524 1
63620 56375 56525 1
63621 56378 56377 1
63622 56377 56384 1
63623 56377 56526 1
63624 56379 56378 1
63625 56378 56381 1
63626 56378 56527 1
63627 56380 56379 1
63628 56379 56528 1
63629 56379 56529 1
63630 56380 56530 1
63631 56380 56531 1
63632 56382 56381 1
63633 56383 56382 1
63634 56382 56388 1
63635 56382 56532 1
63636 56384 56383 1
63637 56383 56385 1
63638 56383 56533 1
63639 56384 56534 1
63640 56384 56535 1
63641 56386 56385 1
63642 56385 56395 2
63643 56387 56386 1
63644 56386 56392 1
63645 56388 56387 1
63646 56387 56389 1
63647 56388 56400 1
63648 56388 56536 1
63649 56390 56389 1
63650 56389 56402 1
63651 56391 56390 1
63652 56390 56399 1
63653 56392 56391 1
63654 56391 56396 1
63655 56392 56393 1
63656 56394 56393 1
63657 56393 56537 1
63658 56393 56538 1
63659 56395 56394 1
63660 56394 56539 1
63661 56394 56540 1
63662 56395 56541 1
63663 56397 56396 1
63664 56398 56397 1
63665 56397 56433 1
63666 56399 56398 1
63667 56398 56417 1
63668 56399 56415 1
63669 56401 56400 1
63670 56400 56406 2
63671 56402 56401 1
63672 56401 56403 1
63673 56401 56542 1
63674 56402 56416 1
63675 56404 56403 2
63676 56403 56410 1
63677 56405 56404 1
63678 56404 56407 1
63679 56406 56405 1
63680 56405 56543 1
63681 56405 56544 1
63682 56406 56545 1
63683 56408 56407 1
63684 56407 56546 1
63685 56407 56547 1
63686 56409 56408 1
63687 56408 56548 1
63688 56408 56549 1
63689 56410 56409 2
63690 56409 56414 1
63691 56410 56411 1
63692 56412 56411 1
63693 56411 56550 1
63694 56411 56551 1
63695 56413 56412 1
63696 56412 56487 1
63697 56412 56552 1
63698 56414 56413 1
63699 56413 56553 1
63700 56413 56554 1
63701 56414 56555 1
63702 56414 56556 1
63703 56416 56415 1
63704 56415 56419 1
63705 56416 56557 1
63706 56418 56417 1
63707 56417 56423 1
63708 56419 56418 1
63709 56418 56420 1
63710 56421 56420 1
63711 56420 56558 1
63712 56422 56421 1
63713 56421 56427 1
63714 56423 56422 1
63715 56422 56424 1
63716 56423 56432 1
63717 56425 56424 1
63718 56424 56434 1
63719 56426 56425 1
63720 56425 56431 1
63721 56427 56426 1
63722 56426 56428 1
63723 56427 56559 1
63724 56429 56428 1
63725 56428 56444 1
63726 56430 56429 1
63727 56429 56441 1
63728 56431 56430 1
63729 56430 56438 1
63730 56431 56436 1
63731 56433 56432 1
63732 56432 56435 1
63733 56433 56560 1
63734 56435 56434 1
63735 56434 56437 1
63736 56435 56453 1
63737 56437 56436 1
63738 56436 56440 1
63739 56437 56455 1
63740 56439 56438 1
63741 56438 56471 1
63742 56440 56439 1
63743 56439 56466 1
63744 56440 56464 1
63745 56442 56441 1
63746 56443 56442 1
63747 56442 56448 1
63748 56442 56561 1
63749 56444 56443 1
63750 56443 56445 1
63751 56443 56562 1
63752 56444 56490 1
63753 56444 56563 1
63754 56446 56445 1
63755 56445 56564 1
63756 56445 56565 1
63757 56447 56446 1
63758 56446 56566 1
63759 56446 56567 1
63760 56448 56447 1
63761 56447 56452 1
63762 56447 56568 1
63763 56448 56449 1
63764 56448 56569 1
63765 56450 56449 1
63766 56449 56570 1
63767 56449 56571 1
63768 56451 56450 1
63769 56450 56572 1
63770 56450 56573 1
63771 56452 56451 1
63772 56451 56574 1
63773 56451 56575 1
63774 56452 56576 1
63775 56454 56453 1
63776 56453 56459 1
63777 56455 56454 1
63778 56454 56456 1
63779 56455 56465 1
63780 56457 56456 1
63781 56458 56457 1
63782 56457 56463 1
63783 56457 56577 1
63784 56459 56458 1
63785 56458 56460 1
63786 56458 56578 1
63787 56461 56460 1
63788 56460 56579 1
63789 56460 56580 1
63790 56462 56461 1
63791 56461 56581 1
63792 56461 56582 1
63793 56463 56462 1
63794 56462 56583 1
63795 56462 56584 1
63796 56463 56585 1
63797 56463 56586 1
63798 56465 56464 1
63799 56464 56468 1
63800 56465 56587 1
63801 56467 56466 1
63802 56466 56469 1
63803 56468 56467 1
63804 56467 56472 1
63805 56468 56588 1
63806 56470 56469 1
63807 56469 56474 1
63808 56471 56470 1
63809 56470 56475 1
63810 56471 56589 1
63811 56473 56472 1
63812 56474 56473 1
63813 56473 56484 1
63814 56474 56477 1
63815 56476 56475 1
63816 56475 56481 1
63817 56475 56590 1
63818 56477 56476 1
63819 56476 56478 1
63820 56476 56591 1
63821 56477 56482 1
63822 56479 56478 1
63823 56478 56485 1
63824 56478 56592 1
63825 56480 56479 1
63826 56479 56593 1
63827 56479 56594 1
63828 56481 56480 1
63829 56480 56595 1
63830 56480 56596 1
63831 56481 56597 1
63832 56481 56598 1
63833 56483 56482 1
63834 56482 56486 1
63835 56484 56483 1
63836 56483 56494 1
63837 56484 56491 1
63838 56485 56486 1
63839 56485 56509 1
63840 56486 56505 1
63841 56487 56488 1
63842 56487 56489 1
63843 56487 56599 1
63844 56488 56600 1
63845 56488 56601 1
63846 56488 56602 1
63847 56489 56603 1
63848 56489 56604 1
63849 56489 56605 1
63850 56490 56606 1
63851 56492 56491 1
63852 56491 56607 1
63853 56493 56492 1
63854 56492 56608 1
63855 56494 56493 1
63856 56493 56498 1
63857 56494 56495 1
63858 56496 56495 1
63859 56495 56505 1
63860 56497 56496 1
63861 56496 56502 1
63862 56498 56497 1
63863 56497 56499 1
63864 56498 56609 1
63865 56500 56499 1
63866 56499 56610 1
63867 56501 56500 1
63868 56500 56611 1
63869 56502 56501 1
63870 56501 56508 1
63871 56502 56503 1
63872 56504 56503 1
63873 56503 56506 1
63874 56505 56504 1
63875 56504 56510 1
63876 56507 56506 1
63877 56506 56511 1
63878 56508 56507 1
63879 56507 56612 1
63880 56508 56613 1
63881 56510 56509 1
63882 56509 56614 1
63883 56510 56512 1
63884 56512 56511 1
63885 56511 56516 1
63886 56512 56513 1
63887 56514 56513 1
63888 56513 56615 1
63889 56513 56616 1
63890 56515 56514 1
63891 56514 56617 1
63892 56514 56618 1
63893 56516 56515 1
63894 56515 56619 1
63895 56515 56620 1
63896 56516 56517 2
63897 56621 56622 1
63898 56621 56626 1
63899 56621 56768 1
63900 56621 56769 1
63901 56623 56622 1
63902 56622 56770 1
63903 56622 56771 1
63904 56624 56623 1
63905 56623 56630 1
63906 56623 56772 1
63907 56625 56624 1
63908 56624 56627 1
63909 56624 56773 1
63910 56626 56625 1
63911 56625 56774 1
63912 56625 56775 1
63913 56628 56627 1
63914 56627 56634 1
63915 56627 56776 1
63916 56629 56628 1
63917 56628 56631 1
63918 56628 56777 1
63919 56630 56629 1
63920 56629 56778 1
63921 56629 56779 1
63922 56630 56780 1
63923 56630 56781 1
63924 56632 56631 1
63925 56633 56632 1
63926 56632 56638 1
63927 56632 56782 1
63928 56634 56633 1
63929 56633 56635 1
63930 56633 56783 1
63931 56634 56784 1
63932 56634 56785 1
63933 56636 56635 1
63934 56635 56645 2
63935 56637 56636 1
63936 56636 56642 1
63937 56638 56637 1
63938 56637 56639 1
63939 56638 56650 1
63940 56638 56786 1
63941 56640 56639 1
63942 56639 56652 1
63943 56641 56640 1
63944 56640 56649 1
63945 56642 56641 1
63946 56641 56646 1
63947 56642 56643 1
63948 56644 56643 1
63949 56643 56787 1
63950 56643 56788 1
63951 56645 56644 1
63952 56644 56789 1
63953 56644 56790 1
63954 56645 56791 1
63955 56647 56646 1
63956 56648 56647 1
63957 56647 56683 1
63958 56649 56648 1
63959 56648 56667 1
63960 56649 56665 1
63961 56651 56650 1
63962 56650 56656 2
63963 56652 56651 1
63964 56651 56653 1
63965 56651 56792 1
63966 56652 56666 1
63967 56654 56653 2
63968 56653 56660 1
63969 56655 56654 1
63970 56654 56657 1
63971 56656 56655 1
63972 56655 56793 1
63973 56655 56794 1
63974 56656 56795 1
63975 56658 56657 1
63976 56657 56796 1
63977 56657 56797 1
63978 56659 56658 1
63979 56658 56798 1
63980 56658 56799 1
63981 56660 56659 2
63982 56659 56664 1
63983 56660 56661 1
63984 56662 56661 1
63985 56661 56800 1
63986 56661 56801 1
63987 56663 56662 1
63988 56662 56737 1
63989 56662 56802 1
63990 56664 56663 1
63991 56663 56803 1
63992 56663 56804 1
63993 56664 56805 1
63994 56664 56806 1
63995 56666 56665 1
63996 56665 56669 1
63997 56666 56807 1
63998 56668 56667 1
63999 56667 56673 1
64000 56669 56668 1
64001 56668 56670 1
64002 56671 56670 1
64003 56670 56808 1
64004 56672 56671 1
64005 56671 56677 1
64006 56673 56672 1
64007 56672 56674 1
64008 56673 56682 1
64009 56675 56674 1
64010 56674 56684 1
64011 56676 56675 1
64012 56675 56681 1
64013 56677 56676 1
64014 56676 56678 1
64015 56677 56809 1
64016 56679 56678 1
64017 56678 56694 1
64018 56680 56679 1
64019 56679 56691 1
64020 56681 56680 1
64021 56680 56688 1
64022 56681 56686 1
64023 56683 56682 1
64024 56682 56685 1
64025 56683 56810 1
64026 56685 56684 1
64027 56684 56687 1
64028 56685 56703 1
64029 56687 56686 1
64030 56686 56690 1
64031 56687 56705 1
64032 56689 56688 1
64033 56688 56721 1
64034 56690 56689 1
64035 56689 56716 1
64036 56690 56714 1
64037 56692 56691 1
64038 56693 56692 1
64039 56692 56698 1
64040 56692 56811 1
64041 56694 56693 1
64042 56693 56695 1
64043 56693 56812 1
64044 56694 56740 1
64045 56694 56813 1
64046 56696 56695 1
64047 56695 56814 1
64048 56695 56815 1
64049 56697 56696 1
64050 56696 56816 1
64051 56696 56817 1
64052 56698 56697 1
64053 56697 56702 1
64054 56697 56818 1
64055 56698 56699 1
64056 56698 56819 1
64057 56700 56699 1
64058 56699 56820 1
64059 56699 56821 1
64060 56701 56700 1
64061 56700 56822 1
64062 56700 56823 1
64063 56702 56701 1
64064 56701 56824 1
64065 56701 56825 1
64066 56702 56826 1
64067 56704 56703 1
64068 56703 56709 1
64069 56705 56704 1
64070 56704 56706 1
64071 56705 56715 1
64072 56707 56706 1
64073 56708 56707 1
64074 56707 56713 1
64075 56707 56827 1
64076 56709 56708 1
64077 56708 56710 1
64078 56708 56828 1
64079 56711 56710 1
64080 56710 56829 1
64081 56710 56830 1
64082 56712 56711 1
64083 56711 56831 1
64084 56711 56832 1
64085 56713 56712 1
64086 56712 56833 1
64087 56712 56834 1
64088 56713 56835 1
64089 56713 56836 1
64090 56715 56714 1
64091 56714 56718 1
64092 56715 56837 1
64093 56717 56716 1
64094 56716 56719 1
64095 56718 56717 1
64096 56717 56722 1
64097 56718 56838 1
64098 56720 56719 1
64099 56719 56724 1
64100 56721 56720 1
64101 56720 56725 1
64102 56721 56839 1
64103 56723 56722 1
64104 56724 56723 1
64105 56723 56734 1
64106 56724 56727 1
64107 56726 56725 1
64108 56725 56731 1
64109 56725 56840 1
64110 56727 56726 1
64111 56726 56728 1
64112 56726 56841 1
64113 56727 56732 1
64114 56729 56728 1
64115 56728 56735 1
64116 56728 56842 1
64117 56730 56729 1
64118 56729 56843 1
64119 56729 56844 1
64120 56731 56730 1
64121 56730 56845 1
64122 56730 56846 1
64123 56731 56847 1
64124 56731 56848 1
64125 56733 56732 1
64126 56732 56736 1
64127 56734 56733 1
64128 56733 56744 1
64129 56734 56741 1
64130 56735 56736 1
64131 56735 56759 1
64132 56736 56755 1
64133 56737 56738 1
64134 56737 56739 1
64135 56737 56849 1
64136 56738 56850 1
64137 56738 56851 1
64138 56738 56852 1
64139 56739 56853 1
64140 56739 56854 1
64141 56739 56855 1
64142 56740 56856 1
64143 56742 56741 1
64144 56741 56857 1
64145 56743 56742 1
64146 56742 56858 1
64147 56744 56743 1
64148 56743 56748 1
64149 56744 56745 1
64150 56746 56745 1
64151 56745 56755 1
64152 56747 56746 1
64153 56746 56752 1
64154 56748 56747 1
64155 56747 56749 1
64156 56748 56859 1
64157 56750 56749 1
64158 56749 56860 1
64159 56751 56750 1
64160 56750 56861 1
64161 56752 56751 1
64162 56751 56758 1
64163 56752 56753 1
64164 56754 56753 1
64165 56753 56756 1
64166 56755 56754 1
64167 56754 56760 1
64168 56757 56756 1
64169 56756 56761 1
64170 56758 56757 1
64171 56757 56862 1
64172 56758 56863 1
64173 56760 56759 1
64174 56759 56864 1
64175 56760 56762 1
64176 56762 56761 1
64177 56761 56766 1
64178 56762 56763 1
64179 56764 56763 1
64180 56763 56865 1
64181 56763 56866 1
64182 56765 56764 1
64183 56764 56867 1
64184 56764 56868 1
64185 56766 56765 1
64186 56765 56869 1
64187 56765 56870 1
64188 56766 56767 2
64189 56871 56872 1
64190 56871 56876 1
64191 56871 57018 1
64192 56871 57019 1
64193 56873 56872 1
64194 56872 57020 1
64195 56872 57021 1
64196 56874 56873 1
64197 56873 56880 1
64198 56873 57022 1
64199 56875 56874 1
64200 56874 56877 1
64201 56874 57023 1
64202 56876 56875 1
64203 56875 57024 1
64204 56875 57025 1
64205 56878 56877 1
64206 56877 56884 1
64207 56877 57026 1
64208 56879 56878 1
64209 56878 56881 1
64210 56878 57027 1
64211 56880 56879 1
64212 56879 57028 1
64213 56879 57029 1
64214 56880 57030 1
64215 56880 57031 1
64216 56882 56881 1
64217 56883 56882 1
64218 56882 56888 1
64219 56882 57032 1
64220 56884 56883 1
64221 56883 56885 1
64222 56883 57033 1
64223 56884 57034 1
64224 56884 57035 1
64225 56886 56885 1
64226 56885 56895 2
64227 56887 56886 1
64228 56886 56892 1
64229 56888 56887 1
64230 56887 56889 1
64231 56888 56900 1
64232 56888 57036 1
64233 56890 56889 1
64234 56889 56902 1
64235 56891 56890 1
64236 56890 56899 1
64237 56892 56891 1
64238 56891 56896 1
64239 56892 56893 1
64240 56894 56893 1
64241 56893 57037 1
64242 56893 57038 1
64243 56895 56894 1
64244 56894 57039 1
64245 56894 57040 1
64246 56895 57041 1
64247 56897 56896 1
64248 56898 56897 1
64249 56897 56933 1
64250 56899 56898 1
64251 56898 56917 1
64252 56899 56915 1
64253 56901 56900 1
64254 56900 56906 2
64255 56902 56901 1
64256 56901 56903 1
64257 56901 57042 1
64258 56902 56916 1
64259 56904 56903 2
64260 56903 56910 1
64261 56905 56904 1
64262 56904 56907 1
64263 56906 56905 1
64264 56905 57043 1
64265 56905 57044 1
64266 56906 57045 1
64267 56908 56907 1
64268 56907 57046 1
64269 56907 57047 1
64270 56909 56908 1
64271 56908 57048 1
64272 56908 57049 1
64273 56910 56909 2
64274 56909 56914 1
64275 56910 56911 1
64276 56912 56911 1
64277 56911 57050 1
64278 56911 57051 1
64279 56913 56912 1
64280 56912 56987 1
64281 56912 57052 1
64282 56914 56913 1
64283 56913 57053 1
64284 56913 57054 1
64285 56914 57055 1
64286 56914 57056 1
64287 56916 56915 1
64288 56915 56919 1
64289 56916 57057 1
64290 56918 56917 1
64291 56917 56923 1
64292 56919 56918 1
64293 56918 56920 1
64294 56921 56920 1
64295 56920 57058 1
64296 56922 56921 1
64297 56921 56927 1
64298 56923 56922 1
64299 56922 56924 1
64300 56923 56932 1
64301 56925 56924 1
64302 56924 56934 1
64303 56926 56925 1
64304 56925 56931 1
64305 56927 56926 1
64306 56926 56928 1
64307 56927 57059 1
64308 56929 56928 1
64309 56928 56944 1
64310 56930 56929 1
64311 56929 56941 1
64312 56931 56930 1
64313 56930 56938 1
64314 56931 56936 1
64315 56933 56932 1
64316 56932 56935 1
64317 56933 57060 1
64318 56935 56934 1
64319 56934 56937 1
64320 56935 56953 1
64321 56937 56936 1
64322 56936 56940 1
64323 56937 56955 1
64324 56939 56938 1
64325 56938 56971 1
64326 56940 56939 1
64327 56939 56966 1
64328 56940 56964 1
64329 56942 56941 1
64330 56943 56942 1
64331 56942 56948 1
64332 56942 57061 1
64333 56944 56943 1
64334 56943 56945 1
64335 56943 57062 1
64336 56944 56990 1
64337 56944 57063 1
64338 56946 56945 1
64339 56945 57064 1
64340 56945 57065 1
64341 56947 56946 1
64342 56946 57066 1
64343 56946 57067 1
64344 56948 56947 1
64345 56947 56952 1
64346 56947 57068 1
64347 56948 56949 1
64348 56948 57069 1
64349 56950 56949 1
64350 56949 57070 1
64351 56949 57071 1
64352 56951 56950 1
64353 56950 57072 1
64354 56950 57073 1
64355 56952 56951 1
64356 56951 57074 1
64357 56951 57075 1
64358 56952 57076 1
64359 56954 56953 1
64360 56953 56959 1
64361 56955 56954 1
64362 56954 56956 1
64363 56955 56965 1
64364 56957 56956 1
64365 56958 56957 1
64366 56957 56963 1
64367 56957 57077 1
64368 56959 56958 1
64369 56958 56960 1
64370 56958 57078 1
64371 56961 56960 1
64372 56960 57079 1
64373 56960 57080 1
64374 56962 56961 1
64375 56961 57081 1
64376 56961 57082 1
64377 56963 56962 1
64378 56962 57083 1
64379 56962 57084 1
64380 56963 57085 1
64381 56963 57086 1
64382 56965 56964 1
64383 56964 56968 1
64384 56965 57087 1
64385 56967 56966 1
64386 56966 56969 1
64387 56968 56967 1
64388 56967 56972 1
64389 56968 57088 1
64390 56970 56969 1
64391 56969 56974 1
64392 56971 56970 1
64393 56970 56975 1
64394 56971 57089 1
64395 56973 56972 1
64396 56974 56973 1
64397 56973 56984 1
64398 56974 56977 1
64399 56976 56975 1
64400 56975 56981 1
64401 56975 57090 1
64402 56977 56976 1
64403 56976 56978 1
64404 56976 57091 1
64405 56977 56982 1
64406 56979 56978 1
64407 56978 56985 1
64408 56978 57092 1
64409 56980 56979 1
64410 56979 57093 1
64411 56979 57094 1
64412 56981 56980 1
64413 56980 57095 1
64414 56980 57096 1
64415 56981 57097 1
64416 56981 57098 1
64417 56983 56982 1
64418 56982 56986 1
64419 56984 56983 1
64420 56983 56994 1
64421 56984 56991 1
64422 56985 56986 1
64423 56985 57009 1
64424 56986 57005 1
64425 56987 56988 1
64426 56987 56989 1
64427 56987 57099 1
64428 56988 57100 1
64429 56988 57101 1
64430 56988 57102 1
64431 56989 57103 1
64432 56989 57104 1
64433 56989 57105 1
64434 56990 57106 1
64435 56992 56991 1
64436 56991 57107 1
64437 56993 56992 1
64438 56992 57108 1
64439 56994 56993 1
64440 56993 56998 1
64441 56994 56995 1
64442 56996 56995 1
64443 56995 57005 1
64444 56997 56996 1
64445 56996 57002 1
64446 56998 56997 1
64447 56997 56999 1
64448 56998 57109 1
64449 57000 56999 1
64450 56999 57110 1
64451 57001 57000 1
64452 57000 57111 1
64453 57002 57001 1
64454 57001 57008 1
64455 57002 57003 1
64456 57004 57003 1
64457 57003 57006 1
64458 57005 57004 1
64459 57004 57010 1
64460 57007 57006 1
64461 57006 57011 1
64462 57008 57007 1
64463 57007 57112 1
64464 57008 57113 1
64465 57010 57009 1
64466 57009 57114 1
64467 57010 57012 1
64468 57012 57011 1
64469 57011 57016 1
64470 57012 57013 1
64471 57014 57013 1
64472 57013 57115 1
64473 57013 57116 1
64474 57015 57014 1
64475 57014 57117 1
64476 57014 57118 1
64477 57016 57015 1
64478 57015 57119 1
64479 57015 57120 1
64480 57016 57017 2
@<TRIPOS>CRYSIN
191.875 191.875 191.875 90 90 90 1 1
