# Mol2 file generated by Materials Studio
@<TRIPOS>MOLECULE
"Molecule 1"
7140 8060 0 0 0 
SMALL
USER_CHARGES


@<TRIPOS>ATOM
1 C 31.214 80.8222 79.5049 C.2 0 **** 0
2 C 30.5727 79.6304 79.2054 C.2 0 **** 0
3 C 29.6876 79.5686 78.1409 C.2 0 **** 0
4 C 29.4686 80.6933 77.3847 C.2 0 **** 0
5 C 30.1499 81.8762 77.6453 C.2 0 **** 0
6 C 31.0327 81.9353 78.7036 C.2 0 **** 0
7 C 28.489 80.6634 76.2288 C.3 0 **** -0.106
8 C 27.6329 79.4203 76.0279 C.2 0 **** 0
9 C 27.8441 78.2969 76.7776 C.2 0 **** 0
10 C 28.9624 78.2652 77.817 C.3 0 **** -0.106
11 C 27.0244 77.1793 76.5904 C.2 0 **** 0
12 C 25.9571 77.2134 75.7148 C.2 0 **** 0
13 C 25.8061 78.3158 74.8815 C.2 0 **** 0
14 C 26.6296 79.4363 75.0437 C.2 0 **** 0
15 C 26.4418 80.5587 74.2516 C.2 0 **** -0.1268
16 C 25.3919 80.7239 73.372 C.2 0 **** 0
17 C 24.4794 79.6105 73.3403 C.2 0 **** 0
18 C 24.8234 78.3766 73.898 C.2 0 **** 0.042
19 C 23.2114 79.6898 72.4666 C.3 0 **** 0
20 C 22.9896 80.9456 71.6197 C.3 0 **** 0
21 C 24.1346 81.9762 71.5529 C.2 0 **** 0
22 C 25.2638 81.8695 72.4295 C.2 0 **** 0
23 C 21.5077 81.3308 71.4239 C.3 0 **** -0.106
24 C 20.7238 81.2792 72.739 C.3 0 **** -0.053
25 C 20.7283 79.8479 73.3573 C.3 0 **** -0.053
26 C 21.9023 78.964 72.8601 C.3 0 **** -0.106
27 C 26.2897 82.8154 72.2328 C.2 0 **** 0.042
28 C 26.1775 83.792 71.2664 C.2 0 **** 0.052
29 C 25.0809 83.8456 70.4191 C.2 0 **** 0.052
30 C 24.0955 82.9002 70.5243 C.2 0 **** 0.042
31 C 24.9368 84.8954 69.3485 C.2 0 **** 0.367
32 C 26.043 85.8922 69.2429 C.2 0 **** 0
33 C 27.1117 85.8376 70.0467 C.2 0 **** 0
34 C 27.2737 84.8143 71.1071 C.2 0 **** 0.367
35 C 28.2221 86.858 69.9407 C.3 0 **** -0.106
36 C 27.6109 88.2333 69.573 C.3 0 **** -0.106
37 C 26.7233 88.1241 68.333 C.2 0 **** 0
38 C 25.9307 86.9647 68.1739 C.2 0 **** 0.2405
39 N 25.1022 86.8043 67.1204 N.2 0 **** -0.481
40 C 24.9721 87.8155 66.2678 C.2 0 **** 0.2405
41 C 25.7584 88.9877 66.356 C.2 0 **** 0
42 C 26.6447 89.1231 67.3949 C.2 0 **** 0
43 C 27.5002 90.3741 67.5521 C.3 0 **** -0.106
44 C 27.5531 91.2236 66.2762 C.3 0 **** -0.106
45 C 26.1579 91.3796 65.6805 C.3 0 **** -0.106
46 C 25.6226 90.0016 65.2473 C.3 0 **** -0.053
47 C 24.1426 90.0887 64.7898 C.3 0 **** -0.106
48 C 23.6262 88.7112 64.4695 C.2 0 **** 0
49 C 24.0322 87.6106 65.2264 C.2 0 **** 0
50 C 23.4998 86.3413 64.9378 C.2 0 **** -0.1268
51 C 22.5633 86.2059 63.9311 C.2 0 **** -0.1268
52 C 22.1242 87.2989 63.2048 C.2 0 **** 0
53 C 22.6483 88.559 63.4917 C.2 0 **** 0
54 C 31.8182 83.1942 78.9686 C.3 0 **** -0.106
55 C 31.0012 84.1917 79.8168 C.3 0 **** -0.159
56 C 32.1138 80.893 80.7114 C.3 0 **** -0.159
57 C 29.8672 83.0654 76.7563 C.3 0 **** -0.159
58 C 30.828 78.3994 80.0402 C.3 0 **** -0.159
59 C 27.3225 75.9367 77.4297 C.3 0 **** -0.159
60 C 25.0118 76.0355 75.7354 C.3 0 **** -0.159
61 O 24.1243 77.2646 73.5225 O.3 0 **** -0.452
62 C 19.4627 79.042 73.0568 C.3 0 **** -0.159
63 C 19.3197 81.8328 72.4685 C.3 0 **** -0.159
64 O 23.0417 82.8246 69.6541 O.3 0 **** -0.452
65 O 27.4158 82.7717 72.9883 O.3 0 **** -0.452
66 O 28.2395 84.7987 71.8004 O.2 0 **** -0.419
67 O 23.9607 84.9416 68.6582 O.2 0 **** -0.419
68 C 22.138 89.7693 62.7277 C.3 0 **** -0.159
69 C 21.0715 87.0763 62.1373 C.3 0 **** -0.159
70 H 27.7946 81.5247 76.365 H 0 **** 0.053
71 H 29.0548 80.8565 75.2846 H 0 **** 0.053
72 H 29.7264 77.5204 77.4873 H 0 **** 0.053
73 H 28.531 77.8737 78.7648 H 0 **** 0.053
74 H 27.1585 81.3338 74.404 H 0 **** 0.1268
75 H 21.4077 82.3316 70.9997 H 0 **** 0.053
76 H 21.0988 80.6137 70.7086 H 0 **** 0.053
77 H 21.2201 81.9604 73.4534 H 0 **** 0.053
78 H 20.8183 79.9628 74.4456 H 0 **** 0.053
79 H 21.6016 78.4592 71.9376 H 0 **** 0.053
80 H 22.0869 78.1891 73.6138 H 0 **** 0.053
81 H 28.8001 86.9579 70.8775 H 0 **** 0.053
82 H 28.9318 86.5268 69.163 H 0 **** 0.053
83 H 28.448 88.9423 69.4524 H 0 **** 0.053
84 H 27.024 88.605 70.44 H 0 **** 0.053
85 H 27.0951 90.993 68.3757 H 0 **** 0.053
86 H 28.5394 90.1216 67.8298 H 0 **** 0.053
87 H 28.2092 90.7367 65.5298 H 0 **** 0.053
88 H 28.0022 92.2118 66.4877 H 0 **** 0.053
89 H 26.166 92.0685 64.8143 H 0 **** 0.053
90 H 25.4789 91.821 66.4325 H 0 **** 0.053
91 H 26.2329 89.6644 64.374 H 0 **** 0.053
92 H 23.5367 90.5442 65.6059 H 0 **** 0.053
93 H 24.0835 90.7889 63.9283 H 0 **** 0.053
94 H 23.8131 85.4567 65.5064 H 0 **** 0.1268
95 H 22.1474 85.2088 63.713 H 0 **** 0.1268
96 H 32.1388 83.6911 78.0323 H 0 **** 0.053
97 H 32.7731 82.989 79.4844 H 0 **** 0.053
98 H 30.7096 83.7457 80.782 H 0 **** 0.053
99 H 30.0808 84.5031 79.2963 H 0 **** 0.053
100 H 31.5805 85.1102 80.0393 H 0 **** 0.053
101 H 31.8033 80.2045 81.5215 H 0 **** 0.053
102 H 32.1154 81.8918 81.188 H 0 **** 0.053
103 H 33.1691 80.6478 80.4597 H 0 **** 0.053
104 H 28.7999 83.3762 76.8167 H 0 **** 0.053
105 H 30.0806 82.8432 75.6885 H 0 **** 0.053
106 H 30.4437 83.9718 76.9934 H 0 **** 0.053
107 H 30.6455 77.4514 79.4982 H 0 **** 0.053
108 H 30.1843 78.3784 80.9476 H 0 **** 0.053
109 H 31.8792 78.3296 80.3793 H 0 **** 0.053
110 H 27.0747 74.9992 76.9017 H 0 **** 0.053
111 H 26.7615 75.941 78.3924 H 0 **** 0.053
112 H 28.4006 75.8261 77.6868 H 0 **** 0.053
113 H 23.9469 76.3527 75.6761 H 0 **** 0.053
114 H 25.036 75.4289 76.6814 H 0 **** 0.053
115 H 25.1893 75.311 74.8986 H 0 **** 0.053
116 H 23.686 77.4341 72.6848 H 0 **** 0.41
117 H 18.571 79.5057 73.4996 H 0 **** 0.053
118 H 19.5451 78.0212 73.4762 H 0 **** 0.053
119 H 19.3019 78.9362 71.9657 H 0 **** 0.053
120 H 19.3749 82.8757 72.1032 H 0 **** 0.053
121 H 18.7066 81.8349 73.3821 H 0 **** 0.053
122 H 18.7934 81.2452 71.6901 H 0 **** 0.053
123 H 23.0704 83.6012 69.0753 H 0 **** 0.41
124 H 28.0007 83.5076 72.7564 H 0 **** 0.41
125 H 21.8457 90.5871 63.4126 H 0 **** 0.053
126 H 21.2395 89.5612 62.116 H 0 **** 0.053
127 H 22.9043 90.1687 62.0315 H 0 **** 0.053
128 H 20.1332 87.6141 62.3657 H 0 **** 0.053
129 H 20.8028 86.0103 62.0341 H 0 **** 0.053
130 H 21.4166 87.4107 61.1433 H 0 **** 0.053
131 C 33.5467 72.662 90.3566 C.2 0 **** 0
132 C 34.8387 72.1601 90.3346 C.2 0 **** 0
133 C 35.9164 73.0137 90.5082 C.2 0 **** 0
134 C 35.686 74.3512 90.7153 C.2 0 **** 0
135 C 34.392 74.852 90.7938 C.2 0 **** 0
136 C 33.3202 74.0004 90.6235 C.2 0 **** 0
137 C 36.8445 75.3132 90.8856 C.3 0 **** -0.106
138 C 38.2599 74.801 90.6561 C.2 0 **** 0
139 C 38.4974 73.4709 90.4483 C.2 0 **** 0
140 C 37.3426 72.4717 90.4658 C.3 0 **** -0.106
141 C 39.8044 73.0326 90.2132 C.2 0 **** 0
142 C 40.8514 73.9272 90.1122 C.2 0 **** 0
143 C 40.6271 75.2632 90.4237 C.2 0 **** 0
144 C 39.3271 75.7155 90.6794 C.2 0 **** 0
145 C 39.0943 77.0586 90.9337 C.2 0 **** -0.1268
146 C 40.0495 78.0481 90.8258 C.2 0 **** 0
147 C 41.3424 77.5655 90.415 C.2 0 **** 0
148 C 41.6528 76.2036 90.452 C.2 0 **** 0.042
149 C 42.4861 78.5695 90.1684 C.3 0 **** 0
150 C 42.2164 80.0555 90.4178 C.3 0 **** 0
151 C 40.8732 80.4401 91.0698 C.2 0 **** 0
152 C 39.8324 79.4665 91.224 C.2 0 **** 0
153 C 42.9977 81.0107 89.4906 C.3 0 **** -0.106
154 C 42.9326 80.5677 88.0256 C.3 0 **** -0.053
155 C 43.5537 79.1524 87.8225 C.3 0 **** -0.053
156 C 43.5937 78.3039 89.1206 C.3 0 **** -0.106
157 C 38.6766 79.9011 91.9032 C.2 0 **** 0.042
158 C 38.5668 81.1981 92.3573 C.2 0 **** 0.052
159 C 39.6074 82.1032 92.2133 C.2 0 **** 0.052
160 C 40.7789 81.7024 91.6277 C.2 0 **** 0.042
161 C 39.519 83.5227 92.7095 C.2 0 **** 0.367
162 C 38.2393 83.9168 93.3693 C.2 0 **** 0
163 C 37.2365 83.0448 93.5256 C.2 0 **** 0
164 C 37.3008 81.6436 93.044 C.2 0 **** 0.367
165 C 35.9392 83.4552 94.1843 C.3 0 **** -0.106
166 C 35.6235 84.924 93.8056 C.3 0 **** -0.106
167 C 36.8119 85.8357 94.1117 C.2 0 **** 0
168 C 38.1157 85.3406 93.8819 C.2 0 **** 0.2405
169 N 39.2151 86.0921 94.1024 N.2 0 **** -0.481
170 C 39.0437 87.3612 94.4584 C.2 0 **** 0.2405
171 C 37.7678 87.9062 94.7325 C.2 0 **** 0
172 C 36.6543 87.1217 94.5651 C.2 0 **** 0
173 C 35.2538 87.6635 94.8237 C.3 0 **** -0.106
174 C 35.2595 88.9662 95.6331 C.3 0 **** -0.106
175 C 36.3108 89.9279 95.0894 C.3 0 **** -0.106
176 C 37.7135 89.3159 95.2666 C.3 0 **** -0.053
177 C 38.7997 90.1836 94.5777 C.3 0 **** -0.106
178 C 40.1391 89.5048 94.6873 C.2 0 **** 0
179 C 40.236 88.1145 94.6029 C.2 0 **** 0
180 C 41.503 87.507 94.6604 C.2 0 **** -0.1268
181 C 42.6335 88.2934 94.7703 C.2 0 **** -0.1268
182 C 42.5487 89.674 94.8116 C.2 0 **** 0
183 C 41.2934 90.2787 94.7513 C.2 0 **** 0
184 C 31.9105 74.5171 90.757 C.3 0 **** -0.106
185 C 31.4148 75.1301 89.4302 C.3 0 **** -0.159
186 C 32.39 71.7341 90.0898 C.3 0 **** -0.159
187 C 34.221 76.3329 91.0425 C.3 0 **** -0.159
188 C 35.0778 70.6865 90.1137 C.3 0 **** -0.159
189 C 40.022 71.5317 90.0202 C.3 0 **** -0.159
190 C 42.1819 73.3794 89.6531 C.3 0 **** -0.159
191 O 42.9655 75.8243 90.4287 O.3 0 **** -0.452
192 C 44.9966 79.1791 87.3144 C.3 0 **** -0.159
193 C 43.5924 81.6609 87.1768 C.3 0 **** -0.159
194 O 41.8848 82.5054 91.5515 O.3 0 **** -0.452
195 O 37.6537 79.0402 92.1331 O.3 0 **** -0.452
196 O 36.3882 80.8991 93.2009 O.2 0 **** -0.419
197 O 40.4179 84.2931 92.5356 O.2 0 **** -0.419
198 C 41.1964 91.7952 94.7514 C.3 0 **** -0.159
199 C 43.8349 90.4707 94.9001 C.3 0 **** -0.159
200 H 36.6783 76.1557 90.1749 H 0 **** 0.053
201 H 36.7907 75.7482 91.9136 H 0 **** 0.053
202 H 37.4787 71.7946 91.3433 H 0 **** 0.053
203 H 37.4351 71.8335 89.5595 H 0 **** 0.053
204 H 38.0839 77.2943 91.181 H 0 **** 0.1268
205 H 42.6209 82.0327 89.5611 H 0 **** 0.053
206 H 44.0306 81.0017 89.8456 H 0 **** 0.053
207 H 41.8673 80.5165 87.7368 H 0 **** 0.053
208 H 42.9337 78.6261 87.0847 H 0 **** 0.053
209 H 44.5176 78.5246 89.6626 H 0 **** 0.053
210 H 43.626 77.2458 88.8341 H 0 **** 0.053
211 H 35.089 82.8141 93.8879 H 0 **** 0.053
212 H 36.0504 83.3498 95.2774 H 0 **** 0.053
213 H 34.7018 85.2093 94.3413 H 0 **** 0.053
214 H 35.369 84.9656 92.725 H 0 **** 0.053
215 H 34.7481 87.8469 93.8562 H 0 **** 0.053
216 H 34.6316 86.9321 95.3704 H 0 **** 0.053
217 H 35.4885 88.7466 96.6932 H 0 **** 0.053
218 H 34.2571 89.4332 95.6215 H 0 **** 0.053
219 H 36.2614 90.9079 95.6011 H 0 **** 0.053
220 H 36.1226 90.1183 94.0172 H 0 **** 0.053
221 H 37.9345 89.2948 96.3619 H 0 **** 0.053
222 H 38.5274 90.3229 93.5067 H 0 **** 0.053
223 H 38.7833 91.1951 95.0387 H 0 **** 0.053
224 H 41.6071 86.4158 94.6122 H 0 **** 0.1268
225 H 43.6232 87.8103 94.8115 H 0 **** 0.1268
226 H 31.8168 75.271 91.5628 H 0 **** 0.053
227 H 31.2045 73.7269 91.0684 H 0 **** 0.053
228 H 31.4455 74.3885 88.6149 H 0 **** 0.053
229 H 32.0344 75.9903 89.1283 H 0 **** 0.053
230 H 30.3694 75.4893 89.5106 H 0 **** 0.053
231 H 32.6553 70.8984 89.4132 H 0 **** 0.053
232 H 31.5442 72.2369 89.5836 H 0 **** 0.053
233 H 31.9917 71.2842 91.0258 H 0 **** 0.053
234 H 34.6718 76.9393 90.225 H 0 **** 0.053
235 H 34.7075 76.6519 91.9895 H 0 **** 0.053
236 H 33.1783 76.6762 91.1129 H 0 **** 0.053
237 H 36.0354 70.3254 90.536 H 0 **** 0.053
238 H 35.0887 70.4306 89.031 H 0 **** 0.053
239 H 34.3051 70.0566 90.5943 H 0 **** 0.053
240 H 41.0079 71.1959 90.3869 H 0 **** 0.053
241 H 39.9401 71.2342 88.9496 H 0 **** 0.053
242 H 39.2951 70.9042 90.5844 H 0 **** 0.053
243 H 42.6813 74.053 88.9218 H 0 **** 0.053
244 H 42.1231 72.407 89.0925 H 0 **** 0.053
245 H 42.9036 73.2087 90.494 H 0 **** 0.053
246 H 43.5145 76.5568 90.72 H 0 **** 0.41
247 H 45.0677 79.6313 86.3162 H 0 **** 0.053
248 H 45.399 78.1511 87.2391 H 0 **** 0.053
249 H 45.6564 79.7402 88.0052 H 0 **** 0.053
250 H 43.0644 82.6247 87.303 H 0 **** 0.053
251 H 43.5666 81.4075 86.1064 H 0 **** 0.053
252 H 44.6463 81.828 87.4761 H 0 **** 0.053
253 H 41.6371 83.3916 91.8553 H 0 **** 0.41
254 H 36.9225 79.4996 92.5721 H 0 **** 0.41
255 H 40.5563 92.1605 93.9266 H 0 **** 0.053
256 H 42.1708 92.302 94.6155 H 0 **** 0.053
257 H 40.7742 92.1793 95.7031 H 0 **** 0.053
258 H 43.9848 91.1105 94.0113 H 0 **** 0.053
259 H 44.7234 89.8188 94.9688 H 0 **** 0.053
260 H 43.8538 91.1226 95.7909 H 0 **** 0.053
261 C 42.3718 23.2203 56.3201 C.2 0 **** 0
262 C 42.2268 23.9306 57.5016 C.2 0 **** 0
263 C 41.3692 23.4675 58.4867 C.2 0 **** 0
264 C 40.6831 22.2959 58.2825 C.2 0 **** 0
265 C 40.8666 21.5503 57.124 C.2 0 **** 0
266 C 41.7222 22.0114 56.145 C.2 0 **** 0
267 C 39.721 21.7758 59.3318 C.3 0 **** -0.106
268 C 39.4035 22.6556 60.5333 C.2 0 **** 0
269 C 40.0815 23.8241 60.743 C.2 0 **** 0
270 C 41.1883 24.2541 59.7824 C.3 0 **** -0.106
271 C 39.7502 24.6256 61.8401 C.2 0 **** 0
272 C 38.7004 24.297 62.675 C.2 0 **** 0
273 C 38.0802 23.0623 62.5223 C.2 0 **** 0
274 C 38.4125 22.2395 61.4393 C.2 0 **** 0
275 C 37.7542 21.0333 61.2537 C.2 0 **** -0.1268
276 C 36.6694 20.6164 61.997 C.2 0 **** 0
277 C 36.2608 21.5572 63.0076 C.2 0 **** 0
278 C 37.0907 22.6133 63.392 C.2 0 **** 0.042
279 C 35.0087 21.2645 63.8582 C.3 0 **** 0
280 C 34.2636 19.9475 63.6266 C.3 0 **** 0
281 C 34.9115 18.9141 62.6833 C.2 0 **** 0
282 C 36.0467 19.2686 61.8829 C.2 0 **** 0
283 C 32.7394 20.0272 63.8573 C.3 0 **** -0.106
284 C 32.1218 21.2578 63.1859 C.3 0 **** -0.053
285 C 32.721 22.583 63.7477 C.3 0 **** -0.053
286 C 34.1124 22.3998 64.4091 C.3 0 **** -0.106
287 C 36.6101 18.2288 61.1161 C.2 0 **** 0.042
288 C 36.0661 16.9621 61.1308 C.2 0 **** 0.052
289 C 34.9838 16.6517 61.9401 C.2 0 **** 0.052
290 C 34.4518 17.6117 62.7595 C.2 0 **** 0.042
291 C 34.3763 15.2742 61.984 C.2 0 **** 0.367
292 C 34.9994 14.2451 61.1006 C.2 0 **** 0
293 C 36.0535 14.5331 60.3284 C.2 0 **** 0
294 C 36.6671 15.8819 60.2677 C.2 0 **** 0.367
295 C 36.6715 13.4883 59.4276 C.3 0 **** -0.106
296 C 35.5519 12.5673 58.881 C.3 0 **** -0.106
297 C 34.6999 12.0063 60.0197 C.2 0 **** 0
298 C 34.412 12.8453 61.1202 C.2 0 **** 0.2405
299 N 33.6447 12.4339 62.1519 N.2 0 **** -0.481
300 C 33.0793 11.2337 62.0702 C.2 0 **** 0.2405
301 C 33.3524 10.337 61.0111 C.2 0 **** 0
302 C 34.1802 10.7362 59.992 C.2 0 **** 0
303 C 34.4906 9.82017 58.8148 C.3 0 **** -0.106
304 C 34.1284 8.35527 59.0888 C.3 0 **** -0.106
305 C 32.7475 8.2572 59.7285 C.3 0 **** -0.106
306 C 32.7634 8.95133 61.1037 C.3 0 **** -0.053
307 C 31.3401 9.0223 61.7173 C.3 0 **** -0.106
308 C 31.3802 9.79244 63.0102 C.2 0 **** 0
309 C 32.2289 10.8918 63.1519 C.2 0 **** 0
310 C 32.2143 11.6237 64.3528 C.2 0 **** -0.1268
311 C 31.3423 11.2635 65.362 C.2 0 **** -0.1268
312 C 30.468 10.2013 65.2127 C.2 0 **** 0
313 C 30.4785 9.47628 64.0214 C.2 0 **** 0
314 C 41.9724 21.1901 54.9058 C.3 0 **** -0.106
315 C 40.8876 21.4482 53.8385 C.3 0 **** -0.159
316 C 43.2486 23.7762 55.2289 C.3 0 **** -0.159
317 C 40.0889 20.2621 56.9819 C.3 0 **** -0.159
318 C 42.9937 25.2128 57.7167 C.3 0 **** -0.159
319 C 40.5607 25.9049 62.0502 C.3 0 **** -0.159
320 C 38.2916 25.3254 63.7029 C.3 0 **** -0.159
321 O 36.8548 23.2396 64.5833 O.3 0 **** -0.452
322 C 31.8522 23.2491 64.8165 C.3 0 **** -0.159
323 C 30.5991 21.1559 63.3321 C.3 0 **** -0.159
324 O 33.4572 17.3501 63.663 O.3 0 **** -0.452
325 O 37.7111 18.4574 60.3574 O.3 0 **** -0.452
326 O 37.6022 16.0996 59.5681 O.2 0 **** -0.419
327 O 33.4167 15.0457 62.6618 O.2 0 **** -0.419
328 C 29.4908 8.33685 63.8345 C.3 0 **** -0.159
329 C 29.5192 9.88601 66.3518 C.3 0 **** -0.159
330 H 38.7571 21.5615 58.8149 H 0 **** 0.053
331 H 40.1067 20.7958 59.7057 H 0 **** 0.053
332 H 42.159 24.2343 60.3342 H 0 **** 0.053
333 H 41.0047 25.3169 59.5101 H 0 **** 0.053
334 H 38.122 20.4484 60.441 H 0 **** 0.1268
335 H 32.232 19.1362 63.4831 H 0 **** 0.053
336 H 32.5978 20.0726 64.9395 H 0 **** 0.053
337 H 32.3595 21.2073 62.108 H 0 **** 0.053
338 H 32.8288 23.2768 62.9036 H 0 **** 0.053
339 H 33.9752 22.1312 65.4605 H 0 **** 0.053
340 H 34.6312 23.3657 64.3827 H 0 **** 0.053
341 H 37.2239 13.93 58.5782 H 0 **** 0.053
342 H 37.4034 12.906 60.0139 H 0 **** 0.053
343 H 36.0388 11.7868 58.2714 H 0 **** 0.053
344 H 34.9233 13.1519 58.1758 H 0 **** 0.053
345 H 33.9304 10.1654 57.9246 H 0 **** 0.053
346 H 35.5617 9.85562 58.5458 H 0 **** 0.053
347 H 34.8735 7.90762 59.7736 H 0 **** 0.053
348 H 34.1708 7.76504 58.1544 H 0 **** 0.053
349 H 32.4327 7.20248 59.8439 H 0 **** 0.053
350 H 31.9995 8.74359 59.0765 H 0 **** 0.053
351 H 33.4002 8.3337 61.7833 H 0 **** 0.053
352 H 30.6578 9.52414 60.9939 H 0 **** 0.053
353 H 30.9593 7.98479 61.838 H 0 **** 0.053
354 H 32.8823 12.4821 64.4968 H 0 **** 0.1268
355 H 31.3332 11.8435 66.299 H 0 **** 0.1268
356 H 42.0154 20.1053 55.1249 H 0 **** 0.053
357 H 42.9627 21.3963 54.462 H 0 **** 0.053
358 H 40.8537 22.5138 53.5571 H 0 **** 0.053
359 H 39.8871 21.1636 54.2035 H 0 **** 0.053
360 H 41.0772 20.8688 52.9127 H 0 **** 0.053
361 H 43.2845 24.8833 55.2247 H 0 **** 0.053
362 H 42.8938 23.5111 54.2147 H 0 **** 0.053
363 H 44.2976 23.4168 55.3154 H 0 **** 0.053
364 H 38.9909 20.4453 56.9867 H 0 **** 0.053
365 H 40.3041 19.5553 57.812 H 0 **** 0.053
366 H 40.2822 19.7016 56.0552 H 0 **** 0.053
367 H 43.1604 25.4556 58.7841 H 0 **** 0.053
368 H 42.4681 26.0849 57.2684 H 0 **** 0.053
369 H 44.0085 25.1771 57.2761 H 0 **** 0.053
370 H 40.664 26.1711 63.1169 H 0 **** 0.053
371 H 40.1051 26.7767 61.5271 H 0 **** 0.053
372 H 41.6112 25.8266 61.6881 H 0 **** 0.053
373 H 37.1859 25.4176 63.7856 H 0 **** 0.053
374 H 38.6102 26.3778 63.4693 H 0 **** 0.053
375 H 38.6837 25.105 64.7299 H 0 **** 0.053
376 H 36.3467 22.6603 65.1571 H 0 **** 0.41
377 H 30.8819 23.5648 64.4118 H 0 **** 0.053
378 H 32.3518 24.1533 65.213 H 0 **** 0.053
379 H 31.6755 22.5697 65.6735 H 0 **** 0.053
380 H 30.2219 20.2341 62.8509 H 0 **** 0.053
381 H 30.0936 22.0089 62.8556 H 0 **** 0.053
382 H 30.295 21.1128 64.3969 H 0 **** 0.053
383 H 33.1466 16.444 63.5175 H 0 **** 0.41
384 H 37.9488 17.658 59.8641 H 0 **** 0.41
385 H 28.9477 8.4245 62.8749 H 0 **** 0.053
386 H 28.7068 8.29674 64.6147 H 0 **** 0.053
387 H 29.9959 7.34882 63.8481 H 0 **** 0.053
388 H 28.4622 10.0127 66.0545 H 0 **** 0.053
389 H 29.6796 10.5467 67.2219 H 0 **** 0.053
390 H 29.6435 8.85128 66.7164 H 0 **** 0.053
391 C 38.2868 5.60198 38.8272 C.2 0 **** 0
392 C 37.5276 5.19105 39.9118 C.2 0 **** 0
393 C 36.3706 4.45608 39.7085 C.2 0 **** 0
394 C 35.9988 4.13109 38.4275 C.2 0 **** 0
395 C 36.7846 4.49208 37.3396 C.2 0 **** 0
396 C 37.9375 5.22155 37.5439 C.2 0 **** 0
397 C 34.7268 3.34804 38.1719 C.3 0 **** -0.106
398 C 33.7882 3.07647 39.3398 C.2 0 **** 0
399 C 34.1507 3.39781 40.6183 C.2 0 **** 0
400 C 35.5188 4.01669 40.8966 C.3 0 **** -0.106
401 C 33.2577 3.16118 41.6684 C.2 0 **** 0
402 C 31.9862 2.67812 41.4304 C.2 0 **** 0
403 C 31.6555 2.25734 40.1473 C.2 0 **** 0
404 C 32.5455 2.47024 39.0875 C.2 0 **** 0
405 C 32.1934 2.10232 37.7975 C.2 0 **** -0.1268
406 C 30.9441 1.64565 37.4321 C.2 0 **** 0
407 C 30.0072 1.58046 38.5235 C.2 0 **** 0
408 C 30.4347 1.65782 39.8516 C.2 0 **** 0.042
409 C 28.5469 1.1707 38.2486 C.3 0 **** 0
410 C 28.1527 0.795075 36.8176 C.3 0 **** 0
411 C 29.279 0.68259 35.7709 C.2 0 **** 0
412 C 30.6064 1.12942 36.0767 C.2 0 **** 0
413 C 26.6998 1.15295 36.4418 C.3 0 **** -0.106
414 C 26.3324 2.57378 36.8776 C.3 0 **** -0.053
415 C 26.4385 2.753 38.4219 C.3 0 **** -0.053
416 C 27.3727 1.71546 39.0973 C.3 0 **** -0.106
417 C 31.5776 0.905725 35.0801 C.2 0 **** 0.042
418 C 31.2393 0.318076 33.8795 C.2 0 **** 0.052
419 C 29.9489 -0.125541 33.632 C.2 0 **** 0.052
420 C 28.9906 0.00055585 34.6025 C.2 0 **** 0.042
421 C 29.5545 -0.78199 32.3349 C.2 0 **** 0.367
422 C 30.6309 -0.930999 31.3119 C.2 0 **** 0
423 C 31.882 -0.519289 31.5492 C.2 0 **** 0
424 C 32.2926 0.13004 32.8175 C.2 0 **** 0.367
425 C 32.9641 -0.663578 30.5039 C.3 0 **** -0.106
426 C 32.3421 -0.450231 29.1012 C.3 0 **** -0.106
427 C 31.1299 -1.35939 28.896 C.2 0 **** 0
428 C 30.2682 -1.58888 29.9927 C.2 0 **** 0.2405
429 N 29.1619 -2.35544 29.8858 N.2 0 **** -0.481
430 C 28.8434 -2.82754 28.6843 C.2 0 **** 0.2405
431 C 29.6785 -2.65589 27.5555 C.2 0 **** 0
432 C 30.8333 -1.92548 27.6814 C.2 0 **** 0
433 C 31.7587 -1.69047 26.4939 C.3 0 **** -0.106
434 C 31.4825 -2.64495 25.3258 C.3 0 **** -0.106
435 C 29.9842 -2.73772 25.0559 C.3 0 **** -0.106
436 C 29.278 -3.35112 26.2782 C.3 0 **** -0.053
437 C 27.7351 -3.32258 26.1207 C.3 0 **** -0.106
438 C 27.0808 -3.84079 27.3744 C.2 0 **** 0
439 C 27.632 -3.56231 28.6264 C.2 0 **** 0
440 C 26.9749 -4.01443 29.7848 C.2 0 **** -0.1268
441 C 25.7835 -4.70436 29.6703 C.2 0 **** -0.1268
442 C 25.2093 -4.94815 28.4351 C.2 0 **** 0
443 C 25.8564 -4.49564 27.2853 C.2 0 **** 0
444 C 38.8278 5.57687 36.3807 C.3 0 **** -0.106
445 C 38.3414 6.86352 35.6808 C.3 0 **** -0.159
446 C 39.4994 6.46546 39.0602 C.3 0 **** -0.159
447 C 36.317 4.08112 35.9623 C.3 0 **** -0.159
448 C 37.9518 5.54826 41.3154 C.3 0 **** -0.159
449 C 33.7234 3.50605 43.0836 C.3 0 **** -0.159
450 C 31.0307 2.65207 42.6001 C.3 0 **** -0.159
451 O 29.6018 1.21693 40.8412 O.3 0 **** -0.452
452 C 25.1004 2.62773 39.1541 C.3 0 **** -0.159
453 C 24.9429 2.88413 36.3172 C.3 0 **** -0.159
454 O 27.7292 -0.515127 34.4728 O.3 0 **** -0.452
455 O 32.871 1.25414 35.2948 O.3 0 **** -0.452
456 O 33.4141 0.482673 32.9919 O.2 0 **** -0.419
457 O 28.4237 -1.12068 32.1359 O.2 0 **** -0.419
458 C 25.2081 -4.71925 25.9293 C.3 0 **** -0.159
459 C 23.883 -5.68119 28.3908 C.3 0 **** -0.159
460 H 34.1455 3.90881 37.4037 H 0 **** 0.053
461 H 35.0046 2.36962 37.7088 H 0 **** 0.053
462 H 36.117 3.28965 41.4971 H 0 **** 0.053
463 H 35.3609 4.90558 41.5465 H 0 **** 0.053
464 H 32.9607 2.24447 37.0702 H 0 **** 0.1268
465 H 26.5308 1.06449 35.367 H 0 **** 0.053
466 H 26.0652 0.422613 36.949 H 0 **** 0.053
467 H 27.0463 3.26937 36.4023 H 0 **** 0.053
468 H 26.8445 3.75618 38.6069 H 0 **** 0.053
469 H 26.7941 0.81957 39.34 H 0 **** 0.053
470 H 27.7285 2.14293 40.0426 H 0 **** 0.053
471 H 33.7927 0.0541537 30.6453 H 0 **** 0.053
472 H 33.4015 -1.67376 30.5861 H 0 **** 0.053
473 H 33.1429 -0.612502 28.3594 H 0 **** 0.053
474 H 32.0496 0.616719 29.0003 H 0 **** 0.053
475 H 31.6404 -0.648913 26.1383 H 0 **** 0.053
476 H 32.8199 -1.8076 26.7786 H 0 **** 0.053
477 H 31.8677 -3.65373 25.5685 H 0 **** 0.053
478 H 32.0242 -2.31488 24.4198 H 0 **** 0.053
479 H 29.7762 -3.35106 24.1583 H 0 **** 0.053
480 H 29.5763 -1.73046 24.8579 H 0 **** 0.053
481 H 29.5977 -4.41743 26.3311 H 0 **** 0.053
482 H 27.4118 -2.27484 25.9262 H 0 **** 0.053
483 H 27.4659 -3.90747 25.2145 H 0 **** 0.053
484 H 27.3985 -3.82425 30.7782 H 0 **** 0.1268
485 H 25.273 -5.05392 30.5814 H 0 **** 0.1268
486 H 38.8888 4.75944 35.636 H 0 **** 0.053
487 H 39.8796 5.71634 36.6876 H 0 **** 0.053
488 H 38.3195 7.71304 36.3833 H 0 **** 0.053
489 H 37.3266 6.73882 35.2688 H 0 **** 0.053
490 H 39.0055 7.1479 34.8401 H 0 **** 0.053
491 H 39.4027 7.11263 39.9539 H 0 **** 0.053
492 H 39.6886 7.173 38.2306 H 0 **** 0.053
493 H 40.4237 5.86069 39.192 H 0 **** 0.053
494 H 35.3296 4.53173 35.7146 H 0 **** 0.053
495 H 36.2017 2.97916 35.8761 H 0 **** 0.053
496 H 36.982 4.37651 35.1373 H 0 **** 0.053
497 H 37.5737 4.84701 42.0841 H 0 **** 0.053
498 H 37.5977 6.5625 41.6049 H 0 **** 0.053
499 H 39.0514 5.53412 41.4405 H 0 **** 0.053
500 H 33.2871 2.8391 43.848 H 0 **** 0.053
501 H 33.4653 4.55359 43.3615 H 0 **** 0.053
502 H 34.8229 3.39802 43.2247 H 0 **** 0.053
503 H 30.0113 2.99371 42.3139 H 0 **** 0.053
504 H 31.2969 3.34795 43.4418 H 0 **** 0.053
505 H 30.923 1.63584 43.0611 H 0 **** 0.053
506 H 28.9548 0.612312 40.4681 H 0 **** 0.41
507 H 24.3989 3.41926 38.8585 H 0 **** 0.053
508 H 25.2489 2.71183 40.2475 H 0 **** 0.053
509 H 24.6262 1.6451 38.962 H 0 **** 0.053
510 H 24.9421 2.8168 35.2132 H 0 **** 0.053
511 H 24.6246 3.90198 36.5864 H 0 **** 0.053
512 H 24.1868 2.16212 36.6858 H 0 **** 0.053
513 H 27.6251 -0.833793 33.5635 H 0 **** 0.41
514 H 33.3986 1.07887 34.5009 H 0 **** 0.41
515 H 25.1677 -3.7838 25.3405 H 0 **** 0.053
516 H 24.1619 -5.07495 25.9909 H 0 **** 0.053
517 H 25.7601 -5.47259 25.33 H 0 **** 0.053
518 H 23.079 -5.05197 27.967 H 0 **** 0.053
519 H 23.543 -5.9864 29.396 H 0 **** 0.053
520 H 23.9431 -6.60279 27.7859 H 0 **** 0.053
521 C 22.5151 68.9339 50.4793 C.2 0 **** 0
522 C 22.3971 70.2457 50.9113 C.2 0 **** 0
523 C 23.0025 71.2671 50.197 C.2 0 **** 0
524 C 23.7024 70.9631 49.0557 C.2 0 **** 0
525 C 23.7782 69.6574 48.5866 C.2 0 **** 0
526 C 23.1728 68.6423 49.2976 C.2 0 **** 0
527 C 24.3942 72.0549 48.2652 C.3 0 **** -0.106
528 C 24.4404 73.4616 48.847 C.2 0 **** 0
529 C 23.7474 73.7709 49.9844 C.2 0 **** 0
530 C 22.8935 72.7117 50.6772 C.3 0 **** -0.106
531 C 23.8308 75.0642 50.5107 C.2 0 **** 0
532 C 24.6604 76.0143 49.9478 C.2 0 **** 0
533 C 25.2873 75.7246 48.7413 C.2 0 **** 0
534 C 25.1942 74.4453 48.1857 C.2 0 **** 0
535 C 25.8635 74.1446 47.0083 C.2 0 **** -0.1268
536 C 26.7469 74.9969 46.377 C.2 0 **** 0
537 C 26.9326 76.2493 47.0549 C.2 0 **** 0
538 C 26.0629 76.6564 48.0643 C.2 0 **** 0.042
539 C 27.9512 77.2719 46.5128 C.3 0 **** 0
540 C 28.7105 76.928 45.2285 C.3 0 **** 0
541 C 28.2824 75.66 44.462 C.2 0 **** 0
542 C 27.3632 74.7285 45.0484 C.2 0 **** 0
543 C 30.1444 77.4979 45.1641 C.3 0 **** -0.106
544 C 30.913 77.2675 46.4693 C.3 0 **** -0.053
545 C 30.2186 77.9636 47.6785 C.3 0 **** -0.053
546 C 28.7126 78.2467 47.4443 C.3 0 **** -0.106
547 C 26.9762 73.6465 44.2316 C.2 0 **** 0.042
548 C 27.4884 73.4993 42.9603 C.2 0 **** 0.052
549 C 28.3545 74.4378 42.4193 C.2 0 **** 0.052
550 C 28.6966 75.5464 43.1475 C.2 0 **** 0.042
551 C 28.9194 74.3079 41.03 C.2 0 **** 0.367
552 C 28.5007 73.1042 40.2533 C.2 0 **** 0
553 C 27.6532 72.2025 40.7632 C.2 0 **** 0
554 C 27.0861 72.3088 42.1285 C.2 0 **** 0.367
555 C 27.244 70.9798 39.9743 C.3 0 **** -0.106
556 C 28.4493 70.5033 39.1253 C.3 0 **** -0.106
557 C 29.0136 71.6474 38.2825 C.2 0 **** 0
558 C 29.0517 72.9421 38.8481 C.2 0 **** 0.2405
559 N 29.558 74.0003 38.1794 N.2 0 **** -0.481
560 C 30.1144 73.7803 36.9925 C.2 0 **** 0.2405
561 C 30.0804 72.5158 36.3606 C.2 0 **** 0
562 C 29.5138 71.4544 37.019 C.2 0 **** 0
563 C 29.4735 70.0679 36.3951 C.3 0 **** -0.106
564 C 29.7372 70.079 34.8859 C.3 0 **** -0.106
565 C 30.9347 70.9677 34.567 C.3 0 **** -0.106
566 C 30.6151 72.4249 34.9529 C.3 0 **** -0.053
567 C 31.8624 73.3349 34.8042 C.3 0 **** -0.106
568 C 31.5387 74.7252 35.2824 C.2 0 **** 0
569 C 30.693 74.9184 36.3763 C.2 0 **** 0
570 C 30.443 76.2244 36.8336 C.2 0 **** -0.1268
571 C 31.0588 77.2942 36.2137 C.2 0 **** -0.1268
572 C 31.9313 77.1081 35.1559 C.2 0 **** 0
573 C 32.1832 75.8134 34.7033 C.2 0 **** 0
574 C 23.2009 67.2286 48.7762 C.3 0 **** -0.106
575 C 24.5028 66.5097 49.1888 C.3 0 **** -0.159
576 C 21.9165 67.8274 51.3086 C.3 0 **** -0.159
577 C 24.5526 69.4078 47.3129 C.3 0 **** -0.159
578 C 21.6175 70.5666 52.1629 C.3 0 **** -0.159
579 C 23.0093 75.3711 51.7639 C.3 0 **** -0.159
580 C 24.8354 77.3092 50.7062 C.3 0 **** -0.159
581 O 26.0643 77.9678 48.4256 O.3 0 **** -0.452
582 C 30.8296 79.3168 48.0475 C.3 0 **** -0.159
583 C 32.3614 77.7176 46.2451 C.3 0 **** -0.159
584 O 29.4525 76.5678 42.6382 O.3 0 **** -0.452
585 O 26.0769 72.7373 44.6839 O.3 0 **** -0.452
586 O 26.3357 71.4884 42.548 O.2 0 **** -0.419
587 O 29.6957 75.1132 40.6033 O.2 0 **** -0.419
588 C 33.1736 75.5994 33.5712 C.3 0 **** -0.159
589 C 32.5925 78.3283 34.5471 C.3 0 **** -0.159
590 H 25.4484 71.7284 48.1074 H 0 **** 0.053
591 H 23.9228 72.1089 47.2534 H 0 **** 0.053
592 H 21.823 73.0198 50.5998 H 0 **** 0.053
593 H 23.1476 72.7292 51.7599 H 0 **** 0.053
594 H 25.6829 73.1609 46.6337 H 0 **** 0.1268
595 H 30.7127 77.0557 44.3442 H 0 **** 0.053
596 H 30.0378 78.5675 44.9695 H 0 **** 0.053
597 H 30.9263 76.18 46.6646 H 0 **** 0.053
598 H 30.3132 77.2912 48.5416 H 0 **** 0.053
599 H 28.6026 79.2159 46.95 H 0 **** 0.053
600 H 28.231 78.3236 48.4256 H 0 **** 0.053
601 H 26.9046 70.1492 40.6199 H 0 **** 0.053
602 H 26.391 71.2468 39.3266 H 0 **** 0.053
603 H 28.1085 69.6432 38.5249 H 0 **** 0.053
604 H 29.2279 70.1012 39.8078 H 0 **** 0.053
605 H 30.2216 69.4183 36.8864 H 0 **** 0.053
606 H 28.4934 69.5951 36.5565 H 0 **** 0.053
607 H 28.8491 70.4667 34.3512 H 0 **** 0.053
608 H 29.8999 69.0507 34.5125 H 0 **** 0.053
609 H 31.2031 70.9127 33.4944 H 0 **** 0.053
610 H 31.8169 70.619 35.1347 H 0 **** 0.053
611 H 29.8327 72.7939 34.2455 H 0 **** 0.053
612 H 32.6966 72.9074 35.4059 H 0 **** 0.053
613 H 32.1932 73.3028 33.7435 H 0 **** 0.053
614 H 29.7702 76.4039 37.6814 H 0 **** 0.1268
615 H 30.862 78.3146 36.5796 H 0 **** 0.1268
616 H 23.0972 67.1876 47.6744 H 0 **** 0.053
617 H 22.34 66.6354 49.1323 H 0 **** 0.053
618 H 24.6123 66.4859 50.2856 H 0 **** 0.053
619 H 25.3901 67.013 48.7711 H 0 **** 0.053
620 H 24.5213 65.4603 48.8323 H 0 **** 0.053
621 H 21.898 68.0618 52.3909 H 0 **** 0.053
622 H 22.4905 66.8835 51.2435 H 0 **** 0.053
623 H 20.8715 67.5974 51.005 H 0 **** 0.053
624 H 25.623 69.6937 47.4225 H 0 **** 0.053
625 H 24.1463 69.993 46.4599 H 0 **** 0.053
626 H 24.5686 68.361 46.9751 H 0 **** 0.053
627 H 21.2163 71.5983 52.182 H 0 **** 0.053
628 H 22.242 70.4492 53.0762 H 0 **** 0.053
629 H 20.7286 69.9186 52.2846 H 0 **** 0.053
630 H 22.6699 76.4217 51.8025 H 0 **** 0.053
631 H 23.5826 75.1673 52.6974 H 0 **** 0.053
632 H 22.0675 74.7799 51.83 H 0 **** 0.053
633 H 25.8938 77.6515 50.7151 H 0 **** 0.053
634 H 24.5891 77.2522 51.8014 H 0 **** 0.053
635 H 24.2173 78.1494 50.2956 H 0 **** 0.053
636 H 26.3722 78.504 47.6907 H 0 **** 0.41
637 H 31.8712 79.2149 48.3799 H 0 **** 0.053
638 H 30.2641 79.7834 48.8765 H 0 **** 0.053
639 H 30.7978 80.0195 47.1917 H 0 **** 0.053
640 H 32.8275 77.1382 45.4261 H 0 **** 0.053
641 H 32.9726 77.565 47.1472 H 0 **** 0.053
642 H 32.4156 78.7863 45.957 H 0 **** 0.053
643 H 29.7869 76.2905 41.7715 H 0 **** 0.41
644 H 25.9534 72.0361 44.0269 H 0 **** 0.41
645 H 33.9214 74.8257 33.8276 H 0 **** 0.053
646 H 33.7594 76.5034 33.3172 H 0 **** 0.053
647 H 32.6667 75.2827 32.636 H 0 **** 0.053
648 H 33.691 78.3049 34.6687 H 0 **** 0.053
649 H 32.2467 79.2664 35.0157 H 0 **** 0.053
650 H 32.3763 78.418 33.468 H 0 **** 0.053
651 C 48.4553 97.9123 46.8609 C.2 0 **** 0
652 C 48.8136 96.6194 46.5121 C.2 0 **** 0
653 C 47.8508 95.6243 46.46 C.2 0 **** 0
654 C 46.5448 95.9392 46.7427 C.2 0 **** 0
655 C 46.1702 97.2442 47.0389 C.2 0 **** 0
656 C 47.1292 98.2346 47.0876 C.2 0 **** 0
657 C 45.4735 94.8677 46.7177 C.3 0 **** -0.106
658 C 45.8954 93.4155 46.5399 C.2 0 **** 0
659 C 47.194 93.0939 46.2593 C.2 0 **** 0
660 C 48.2406 94.194 46.0967 C.3 0 **** -0.106
661 C 47.5584 91.75 46.1284 C.2 0 **** 0
662 C 46.6469 90.7367 46.3505 C.2 0 **** 0
663 C 45.3085 91.0643 46.5346 C.2 0 **** 0
664 C 44.924 92.4056 46.6505 C.2 0 **** 0
665 C 43.5979 92.7313 46.8918 C.2 0 **** -0.1268
666 C 42.6079 91.8106 47.1661 C.2 0 **** 0
667 C 43.0708 90.4473 47.1853 C.2 0 **** 0
668 C 44.3149 90.0971 46.6545 C.2 0 **** 0.042
669 C 42.093 89.3169 47.5634 C.3 0 **** 0
670 C 40.6372 89.6836 47.862 C.3 0 **** 0
671 C 40.1951 91.1362 47.5943 C.2 0 **** 0
672 C 41.1638 92.15 47.2956 C.2 0 **** 0
673 C 39.9554 88.7843 48.9151 C.3 0 **** -0.106
674 C 40.844 88.5663 50.1439 C.3 0 **** -0.053
675 C 42.1851 87.8651 49.7695 C.3 0 **** -0.053
676 C 42.5706 88.0285 48.2757 C.3 0 **** -0.106
677 C 40.6481 93.4252 46.9887 C.2 0 **** 0.042
678 C 39.2905 93.6649 47.0099 C.2 0 **** 0.052
679 C 38.3832 92.6505 47.2766 C.2 0 **** 0.052
680 C 38.8361 91.3779 47.5044 C.2 0 **** 0.042
681 C 36.8949 92.8815 47.2949 C.2 0 **** 0.367
682 C 36.4351 94.2732 47.0128 C.2 0 **** 0
683 C 37.3038 95.2541 46.7394 C.2 0 **** 0
684 C 38.7722 95.0501 46.7174 C.2 0 **** 0.367
685 C 36.8307 96.6634 46.4662 C.3 0 **** -0.106
686 C 35.5946 96.9613 47.3514 C.3 0 **** -0.106
687 C 34.5244 95.8834 47.1776 C.2 0 **** 0
688 C 34.9409 94.5415 47.0229 C.2 0 **** 0.2405
689 N 34.0579 93.5287 46.8922 N.2 0 **** -0.481
690 C 32.7636 93.8107 47.0043 C.2 0 **** 0.2405
691 C 32.2834 95.1352 47.1293 C.2 0 **** 0
692 C 33.1823 96.1695 47.2029 C.2 0 **** 0
693 C 32.722 97.6131 47.3616 C.3 0 **** -0.106
694 C 31.2357 97.8031 47.0353 C.3 0 **** -0.106
695 C 30.4009 96.7085 47.6917 C.3 0 **** -0.106
696 C 30.7889 95.3384 47.1039 C.3 0 **** -0.053
697 C 30.0853 94.1796 47.8588 C.3 0 **** -0.106
698 C 30.5642 92.8569 47.3226 C.2 0 **** 0
699 C 31.8938 92.6935 46.9295 C.2 0 **** 0
700 C 32.3289 91.4353 46.4762 C.2 0 **** -0.1268
701 C 31.4449 90.3739 46.4533 C.2 0 **** -0.1268
702 C 30.1369 90.5174 46.8814 C.2 0 **** 0
703 C 29.7043 91.7633 47.3347 C.2 0 **** 0
704 C 46.7331 99.6638 47.3577 C.3 0 **** -0.106
705 C 46.6223 99.9343 48.8733 C.3 0 **** -0.159
706 C 49.5254 98.9651 46.9888 C.3 0 **** -0.159
707 C 44.7104 97.5132 47.3221 C.3 0 **** -0.159
708 C 50.2518 96.2879 46.1967 C.3 0 **** -0.159
709 C 49.0154 91.444 45.7804 C.3 0 **** -0.159
710 C 47.1829 89.325 46.3868 C.3 0 **** -0.159
711 O 44.5556 88.7883 46.3435 O.3 0 **** -0.452
712 C 42.184 86.3562 50.0227 C.3 0 **** -0.159
713 C 40.0187 87.8061 51.1888 C.3 0 **** -0.159
714 O 37.9976 90.3077 47.6635 O.3 0 **** -0.452
715 O 41.4846 94.4388 46.6523 O.3 0 **** -0.452
716 O 39.5131 95.9467 46.4721 O.2 0 **** -0.419
717 O 36.1383 91.9948 47.5673 O.2 0 **** -0.419
718 C 28.2821 91.9164 47.8475 C.3 0 **** -0.159
719 C 29.2348 89.2996 46.8563 C.3 0 **** -0.159
720 H 44.9201 94.9349 47.6831 H 0 **** 0.053
721 H 44.7418 95.1226 45.9124 H 0 **** 0.053
722 H 48.5889 94.1927 45.0357 H 0 **** 0.053
723 H 49.1215 93.9153 46.7165 H 0 **** 0.053
724 H 43.3927 93.778 46.8995 H 0 **** 0.1268
725 H 39.0044 89.2064 49.245 H 0 **** 0.053
726 H 39.7533 87.8331 48.4177 H 0 **** 0.053
727 H 41.0848 89.5592 50.5648 H 0 **** 0.053
728 H 42.9743 88.3215 50.3817 H 0 **** 0.053
729 H 42.1027 87.2271 47.6969 H 0 **** 0.053
730 H 43.6568 87.9046 48.1896 H 0 **** 0.053
731 H 37.6101 97.4212 46.6661 H 0 **** 0.053
732 H 36.5726 96.7478 45.3962 H 0 **** 0.053
733 H 35.2427 97.9747 47.0922 H 0 **** 0.053
734 H 35.9215 97.0176 48.4116 H 0 **** 0.053
735 H 32.9032 97.9423 48.403 H 0 **** 0.053
736 H 33.2977 98.2956 46.7107 H 0 **** 0.053
737 H 31.0851 97.7612 45.9397 H 0 **** 0.053
738 H 30.8936 98.8041 47.3582 H 0 **** 0.053
739 H 29.3185 96.8868 47.545 H 0 **** 0.053
740 H 30.5787 96.7073 48.7825 H 0 **** 0.053
741 H 30.4409 95.319 46.0421 H 0 **** 0.053
742 H 30.3188 94.2594 48.9449 H 0 **** 0.053
743 H 28.9862 94.3175 47.7644 H 0 **** 0.053
744 H 33.3642 91.2838 46.1461 H 0 **** 0.1268
745 H 31.7934 89.3899 46.1004 H 0 **** 0.1268
746 H 45.7753 99.9316 46.8703 H 0 **** 0.053
747 H 47.4469 100.384 46.9205 H 0 **** 0.053
748 H 47.5776 99.7286 49.3838 H 0 **** 0.053
749 H 45.8475 99.3037 49.3392 H 0 **** 0.053
750 H 46.3572 100.99 49.0813 H 0 **** 0.053
751 H 50.5033 98.55 47.3024 H 0 **** 0.053
752 H 49.2915 99.7239 47.7596 H 0 **** 0.053
753 H 49.6915 99.5089 46.0328 H 0 **** 0.053
754 H 44.3552 96.9454 48.2115 H 0 **** 0.053
755 H 44.0627 97.2184 46.4686 H 0 **** 0.053
756 H 44.4634 98.5638 47.5352 H 0 **** 0.053
757 H 50.368 95.4093 45.5332 H 0 **** 0.053
758 H 50.8349 96.0718 47.1193 H 0 **** 0.053
759 H 50.7673 97.1101 45.6648 H 0 **** 0.053
760 H 49.1227 90.5285 45.1724 H 0 **** 0.053
761 H 49.6436 91.3195 46.6921 H 0 **** 0.053
762 H 49.4977 92.2364 45.1638 H 0 **** 0.053
763 H 46.7318 88.7274 47.2096 H 0 **** 0.053
764 H 48.284 89.2442 46.598 H 0 **** 0.053
765 H 47.0091 88.7613 45.4334 H 0 **** 0.053
766 H 43.7198 88.3296 46.2243 H 0 **** 0.41
767 H 42.0668 86.1234 51.0893 H 0 **** 0.053
768 H 43.1398 85.9082 49.691 H 0 **** 0.053
769 H 41.373 85.8545 49.4591 H 0 **** 0.053
770 H 39.1193 88.3848 51.4716 H 0 **** 0.053
771 H 40.5994 87.6286 52.1063 H 0 **** 0.053
772 H 39.6659 86.831 50.7979 H 0 **** 0.053
773 H 37.0887 90.6408 47.7129 H 0 **** 0.41
774 H 40.9796 95.2543 46.5136 H 0 **** 0.41
775 H 28.259 92.4104 48.8368 H 0 **** 0.053
776 H 27.7542 90.9536 47.9859 H 0 **** 0.053
777 H 27.6581 92.5182 47.1546 H 0 **** 0.053
778 H 28.8979 89.0157 47.8701 H 0 **** 0.053
779 H 29.7434 88.4137 46.4371 H 0 **** 0.053
780 H 28.3352 89.4668 46.2384 H 0 **** 0.053
781 C 20.6437 98.561 35.5238 C.2 0 **** 0
782 C 19.6109 98.2985 36.4098 C.2 0 **** 0
783 C 18.7396 97.2492 36.1661 C.2 0 **** 0
784 C 18.9242 96.4695 35.0512 C.2 0 **** 0
785 C 19.993 96.6905 34.1908 C.2 0 **** 0
786 C 20.8609 97.7343 34.4364 C.2 0 **** 0
787 C 17.9734 95.3304 34.7445 C.3 0 **** -0.106
788 C 16.7217 95.1739 35.5968 C.2 0 **** 0
789 C 16.5303 95.9473 36.7077 C.2 0 **** 0
790 C 17.5856 96.9689 37.1246 C.3 0 **** -0.106
791 C 15.3583 95.8003 37.4563 C.2 0 **** 0
792 C 14.3555 94.9408 37.0535 C.2 0 **** 0
793 C 14.593 94.0834 35.9854 C.2 0 **** 0
794 C 15.7692 94.2054 35.2358 C.2 0 **** 0
795 C 15.9815 93.3889 34.1353 C.2 0 **** -0.1268
796 C 15.0421 92.5217 33.617 C.2 0 **** 0
797 C 13.7886 92.5314 34.3255 C.2 0 **** 0
798 C 13.6758 93.114 35.5904 C.2 0 **** 0.042
799 C 12.6152 91.6763 33.8073 C.3 0 **** 0
800 C 12.8422 90.8018 32.5716 C.3 0 **** 0
801 C 14.2799 90.6928 32.0255 C.2 0 **** 0
802 C 15.3144 91.554 32.5185 C.2 0 **** 0
803 C 11.5952 90.6198 31.6805 C.3 0 **** -0.106
804 C 10.8763 91.9478 31.423 C.3 0 **** -0.053
805 C 10.378 92.6009 32.748 C.3 0 **** -0.053
806 C 11.1419 92.1073 34.0047 C.3 0 **** -0.106
807 C 16.6081 91.3177 32.0114 C.2 0 **** 0.042
808 C 16.8335 90.3308 31.0754 C.2 0 **** 0.052
809 C 15.8108 89.4996 30.6437 C.2 0 **** 0.052
810 C 14.5534 89.6423 31.1681 C.2 0 **** 0.042
811 C 16.0309 88.4059 29.6317 C.2 0 **** 0.367
812 C 17.4197 88.2591 29.1041 C.2 0 **** 0
813 C 18.415 89.0474 29.5272 C.2 0 **** 0
814 C 18.2212 90.1303 30.5213 C.2 0 **** 0.367
815 C 19.8163 88.8995 28.9797 C.3 0 **** -0.106
816 C 19.7343 88.5082 27.4829 C.3 0 **** -0.106
817 C 18.8382 87.2851 27.2851 C.2 0 **** 0
818 C 17.6772 87.1661 28.0825 C.2 0 **** 0.2405
819 N 16.8216 86.13 27.9509 N.2 0 **** -0.481
820 C 17.0458 85.255 26.9756 C.2 0 **** 0.2405
821 C 18.2041 85.3028 26.1653 C.2 0 **** 0
822 C 19.1035 86.3243 26.3415 C.2 0 **** 0
823 C 20.3562 86.4379 25.4819 C.3 0 **** -0.106
824 C 20.6823 85.1409 24.7311 C.3 0 **** -0.106
825 C 19.4241 84.5633 24.0915 C.3 0 **** -0.106
826 C 18.4175 84.1719 25.1899 C.3 0 **** -0.053
827 C 17.0584 83.7353 24.5818 C.3 0 **** -0.106
828 C 16.0723 83.4565 25.6847 C.2 0 **** 0
829 C 16.0713 84.2335 26.8447 C.2 0 **** 0
830 C 15.1099 83.9839 27.8404 C.2 0 **** -0.1268
831 C 14.1645 82.9955 27.6453 C.2 0 **** -0.1268
832 C 14.1328 82.2498 26.48 C.2 0 **** 0
833 C 15.083 82.498 25.4899 C.2 0 **** 0
834 C 22.0542 97.9554 33.5428 C.3 0 **** -0.106
835 C 21.6733 98.7916 32.3032 C.3 0 **** -0.159
836 C 21.5289 99.7545 35.7627 C.3 0 **** -0.159
837 C 20.1387 95.7773 32.9952 C.3 0 **** -0.159
838 C 19.4256 99.1584 37.6364 C.3 0 **** -0.159
839 C 15.2075 96.6642 38.7087 C.3 0 **** -0.159
840 C 13.0502 95.0043 37.8107 C.3 0 **** -0.159
841 O 12.6126 92.778 36.3805 O.3 0 **** -0.452
842 C 8.90027 92.3399 33.0467 C.3 0 **** -0.159
843 C 9.76061 91.6857 30.4044 C.3 0 **** -0.159
844 O 13.5244 88.7887 30.875 O.3 0 **** -0.452
845 O 17.6602 92.0531 32.4504 O.3 0 **** -0.452
846 O 19.1306 90.8099 30.873 O.2 0 **** -0.419
847 O 15.1212 87.7288 29.2495 O.2 0 **** -0.419
848 C 15.0263 81.7129 24.1901 C.3 0 **** -0.159
849 C 13.0462 81.2045 26.3251 C.3 0 **** -0.159
850 H 17.6407 95.4567 33.6882 H 0 **** 0.053
851 H 18.5488 94.3734 34.7849 H 0 **** 0.053
852 H 18.0212 96.6456 38.1006 H 0 **** 0.053
853 H 17.0647 97.9327 37.3177 H 0 **** 0.053
854 H 16.9327 93.5117 33.6685 H 0 **** 0.1268
855 H 11.8534 90.1727 30.7188 H 0 **** 0.053
856 H 10.9385 89.9287 32.2138 H 0 **** 0.053
857 H 11.6015 92.6377 30.9552 H 0 **** 0.053
858 H 10.529 93.6845 32.6551 H 0 **** 0.053
859 H 10.6584 91.2022 34.3831 H 0 **** 0.053
860 H 11.052 92.8766 34.781 H 0 **** 0.053
861 H 20.4136 89.824 29.08 H 0 **** 0.053
862 H 20.3402 88.1188 29.5581 H 0 **** 0.053
863 H 20.7681 88.3573 27.127 H 0 **** 0.053
864 H 19.3418 89.375 26.9094 H 0 **** 0.053
865 H 20.2215 87.2526 24.7446 H 0 **** 0.053
866 H 21.2405 86.7051 26.0883 H 0 **** 0.053
867 H 21.1011 84.3965 25.4349 H 0 **** 0.053
868 H 21.4629 85.3212 23.9686 H 0 **** 0.053
869 H 19.6603 83.6807 23.467 H 0 **** 0.053
870 H 18.968 85.3149 23.4217 H 0 **** 0.053
871 H 18.8446 83.2977 25.7397 H 0 **** 0.053
872 H 16.6771 84.5494 23.9242 H 0 **** 0.053
873 H 17.2363 82.8581 23.9223 H 0 **** 0.053
874 H 15.0962 84.5691 28.7683 H 0 **** 0.1268
875 H 13.4116 82.808 28.4278 H 0 **** 0.1268
876 H 22.5122 97.0027 33.2121 H 0 **** 0.053
877 H 22.8809 98.4622 34.0699 H 0 **** 0.053
878 H 21.2632 99.7719 32.5975 H 0 **** 0.053
879 H 20.9156 98.2784 31.6887 H 0 **** 0.053
880 H 22.5506 98.9825 31.6531 H 0 **** 0.053
881 H 21.0078 100.586 36.2733 H 0 **** 0.053
882 H 21.9145 100.201 34.8277 H 0 **** 0.053
883 H 22.4042 99.4936 36.3911 H 0 **** 0.053
884 H 19.2574 95.847 32.3185 H 0 **** 0.053
885 H 20.2328 94.7121 33.2973 H 0 **** 0.053
886 H 21.009 95.9836 32.3548 H 0 **** 0.053
887 H 18.9009 98.6426 38.4637 H 0 **** 0.053
888 H 18.8394 100.076 37.4084 H 0 **** 0.053
889 H 20.3888 99.4822 38.0752 H 0 **** 0.053
890 H 14.626 96.1626 39.5022 H 0 **** 0.053
891 H 14.7082 97.6351 38.4866 H 0 **** 0.053
892 H 16.1785 96.9068 39.1975 H 0 **** 0.053
893 H 12.1702 94.9537 37.1317 H 0 **** 0.053
894 H 12.8759 95.9638 38.3697 H 0 **** 0.053
895 H 12.9354 94.1824 38.5644 H 0 **** 0.053
896 H 12.2508 91.9371 36.0888 H 0 **** 0.41
897 H 8.24675 92.7851 32.2848 H 0 **** 0.053
898 H 8.61864 92.7828 34.0209 H 0 **** 0.053
899 H 8.68704 91.2544 33.1056 H 0 **** 0.053
900 H 10.1799 91.2944 29.4584 H 0 **** 0.053
901 H 9.21095 92.6084 30.1655 H 0 **** 0.053
902 H 9.03979 90.9301 30.7755 H 0 **** 0.053
903 H 13.8156 88.1955 30.1662 H 0 **** 0.41
904 H 18.4647 91.8006 31.9728 H 0 **** 0.41
905 H 15.0651 82.3822 23.3104 H 0 **** 0.053
906 H 14.0993 81.1205 24.0696 H 0 **** 0.053
907 H 15.8688 80.9954 24.1064 H 0 **** 0.053
908 H 12.371 81.4344 25.4807 H 0 **** 0.053
909 H 12.4083 81.1312 27.2234 H 0 **** 0.053
910 H 13.4655 80.1975 26.1548 H 0 **** 0.053
911 C 36.4978 75.9134 39.9924 C.2 0 **** 0
912 C 37.2297 74.7537 39.7904 C.2 0 **** 0
913 C 38.2093 74.3857 40.6989 C.2 0 **** 0
914 C 38.4319 75.1732 41.8013 C.2 0 **** 0
915 C 37.6642 76.3071 42.0388 C.2 0 **** 0
916 C 36.6877 76.6706 41.1346 C.2 0 **** 0
917 C 39.5115 74.8092 42.8008 C.3 0 **** -0.106
918 C 40.4511 73.6562 42.4749 C.2 0 **** 0
919 C 40.2369 72.8681 41.3786 C.2 0 **** 0
920 C 39.0329 73.1205 40.4734 C.3 0 **** -0.106
921 C 41.1313 71.8329 41.0886 C.2 0 **** 0
922 C 42.269 71.6375 41.8464 C.2 0 **** 0
923 C 42.4325 72.3706 43.0161 C.2 0 **** 0
924 C 41.5362 73.3991 43.3306 C.2 0 **** 0
925 C 41.7306 74.1687 44.4676 C.2 0 **** -0.1268
926 C 42.844 74.0917 45.2784 C.2 0 **** 0
927 C 43.8167 73.1248 44.84 C.2 0 **** 0
928 C 43.4946 72.1533 43.8889 C.2 0 **** 0.042
929 C 45.1514 72.9899 45.5997 C.3 0 **** 0
930 C 45.3775 73.8654 46.8348 C.3 0 **** 0
931 C 44.1874 74.7005 47.3482 C.2 0 **** 0
932 C 42.9919 74.8236 46.5668 C.2 0 **** 0
933 C 46.8469 74.2776 47.0653 C.3 0 **** -0.106
934 C 47.5113 74.7737 45.7774 C.3 0 **** -0.053
935 C 47.5317 73.6702 44.6763 C.3 0 **** -0.053
936 C 46.4583 72.57 44.8851 C.3 0 **** -0.106
937 C 41.9361 75.542 47.163 C.2 0 **** 0.042
938 C 42.0801 76.1081 48.4119 C.2 0 **** 0.052
939 C 43.2436 75.9432 49.1485 C.2 0 **** 0.052
940 C 44.2665 75.187 48.6406 C.2 0 **** 0.042
941 C 43.4236 76.5409 50.519 C.2 0 **** 0.367
942 C 42.2782 77.3331 51.0544 C.2 0 **** 0
943 C 41.146 77.4833 50.3562 C.2 0 **** 0
944 C 40.9466 76.9057 49.0049 C.2 0 **** 0.367
945 C 39.994 78.2967 50.9004 C.3 0 **** -0.106
946 C 40.5579 79.4917 51.7096 C.3 0 **** -0.106
947 C 41.5576 79.016 52.7635 C.2 0 **** 0
948 C 42.4256 77.9502 52.4338 C.2 0 **** 0.2405
949 N 43.3564 77.4918 53.298 N.2 0 **** -0.481
950 C 43.4968 78.1245 54.4586 C.2 0 **** 0.2405
951 C 42.6334 79.1698 54.8628 C.2 0 **** 0
952 C 41.6604 79.6062 53.9986 C.2 0 **** 0
953 C 40.7277 80.7536 54.3672 C.3 0 **** -0.106
954 C 40.7382 81.0752 55.8668 C.3 0 **** -0.106
955 C 42.1678 81.1135 56.393 C.3 0 **** -0.106
956 C 42.7957 79.7096 56.2644 C.3 0 **** -0.053
957 C 44.2928 79.7467 56.6258 C.3 0 **** -0.106
958 C 44.9407 78.4153 56.3745 C.2 0 **** 0
959 C 44.5378 77.6372 55.2891 C.2 0 **** 0
960 C 45.1708 76.4037 55.0501 C.2 0 **** -0.1268
961 C 46.2 75.9931 55.8755 C.2 0 **** -0.1268
962 C 46.6392 76.7829 56.9235 C.2 0 **** 0
963 C 46.0163 78.0097 57.1575 C.2 0 **** 0
964 C 35.8123 77.8679 41.4027 C.3 0 **** -0.106
965 C 36.493 79.1707 40.9324 C.3 0 **** -0.159
966 C 35.4903 76.3401 38.9562 C.3 0 **** -0.159
967 C 37.9584 77.1115 43.2841 C.3 0 **** -0.159
968 C 36.9697 73.8925 38.5786 C.3 0 **** -0.159
969 C 40.8289 70.9586 39.8714 C.3 0 **** -0.159
970 C 43.2722 70.6315 41.3337 C.3 0 **** -0.159
971 O 44.2869 71.0452 43.7815 O.3 0 **** -0.452
972 C 48.8623 72.9212 44.5782 C.3 0 **** -0.159
973 C 48.901 75.308 46.144 C.3 0 **** -0.159
974 O 45.3955 74.8883 49.3551 O.3 0 **** -0.452
975 O 40.7499 75.6759 46.5187 O.3 0 **** -0.452
976 O 39.9271 77.0619 48.4153 O.2 0 **** -0.419
977 O 44.4548 76.4159 51.1157 O.2 0 **** -0.419
978 C 46.5272 78.898 58.2803 C.3 0 **** -0.159
979 C 47.7942 76.277 57.7663 C.3 0 **** -0.159
980 H 40.1412 75.717 42.9484 H 0 **** 0.053
981 H 39.0228 74.5976 43.7832 H 0 **** 0.053
982 H 38.3448 72.2445 40.5529 H 0 **** 0.053
983 H 39.3985 73.1375 39.4229 H 0 **** 0.053
984 H 40.9611 74.8829 44.6566 H 0 **** 0.1268
985 H 46.9283 75.0605 47.8214 H 0 **** 0.053
986 H 47.3577 73.387 47.4382 H 0 **** 0.053
987 H 46.9157 75.6229 45.3968 H 0 **** 0.053
988 H 47.3379 74.1641 43.7149 H 0 **** 0.053
989 H 46.8675 71.7914 45.5351 H 0 **** 0.053
990 H 46.2503 72.1091 43.9119 H 0 **** 0.053
991 H 39.3292 78.6799 50.1049 H 0 **** 0.053
992 H 39.3763 77.6465 51.544 H 0 **** 0.053
993 H 39.6961 80.0339 52.1354 H 0 **** 0.053
994 H 41.0423 80.2009 51.0054 H 0 **** 0.053
995 H 41.0231 81.6605 53.8051 H 0 **** 0.053
996 H 39.6842 80.5317 54.0806 H 0 **** 0.053
997 H 40.1793 80.2971 56.4198 H 0 **** 0.053
998 H 40.2203 82.032 56.0627 H 0 **** 0.053
999 H 42.202 81.4444 57.4483 H 0 **** 0.053
1000 H 42.7581 81.8452 55.8122 H 0 **** 0.053
1001 H 42.2739 79.0331 56.9807 H 0 **** 0.053
1002 H 44.7233 80.5128 55.9556 H 0 **** 0.053
1003 H 44.4166 80.1145 57.6642 H 0 **** 0.053
1004 H 44.8556 75.7606 54.2172 H 0 **** 0.1268
1005 H 46.6869 75.0221 55.6872 H 0 **** 0.1268
1006 H 35.5495 77.9618 42.4745 H 0 **** 0.053
1007 H 34.828 77.7836 40.9087 H 0 **** 0.053
1008 H 36.7213 79.1318 39.8545 H 0 **** 0.053
1009 H 37.4376 79.3489 41.4719 H 0 **** 0.053
1010 H 35.8456 80.0544 41.1009 H 0 **** 0.053
1011 H 35.7644 76.0218 37.9312 H 0 **** 0.053
1012 H 35.3897 77.4396 38.8822 H 0 **** 0.053
1013 H 34.4768 75.9318 39.1651 H 0 **** 0.053
1014 H 38.9969 77.5127 43.2757 H 0 **** 0.053
1015 H 37.8543 76.4997 44.206 H 0 **** 0.053
1016 H 37.313 77.9895 43.4346 H 0 **** 0.053
1017 H 37.2529 72.8317 38.7205 H 0 **** 0.053
1018 H 37.5295 74.2571 37.6889 H 0 **** 0.053
1019 H 35.8978 73.8617 38.3046 H 0 **** 0.053
1020 H 41.1748 69.9179 40.0004 H 0 **** 0.053
1021 H 41.3 71.3588 38.9445 H 0 **** 0.053
1022 H 39.7399 70.8573 39.6601 H 0 **** 0.053
1023 H 44.3188 70.994 41.4385 H 0 **** 0.053
1024 H 43.1969 70.4091 40.2345 H 0 **** 0.053
1025 H 43.2106 69.6404 41.8543 H 0 **** 0.053
1026 H 44.7807 70.9243 44.5966 H 0 **** 0.41
1027 H 49.6832 73.5879 44.2823 H 0 **** 0.053
1028 H 48.7997 72.1196 43.8179 H 0 **** 0.053
1029 H 49.1261 72.4408 45.541 H 0 **** 0.053
1030 H 48.8208 76.1384 46.8705 H 0 **** 0.053
1031 H 49.4286 75.6935 45.2587 H 0 **** 0.053
1032 H 49.5272 74.5248 46.616 H 0 **** 0.053
1033 H 45.3761 75.4009 50.1769 H 0 **** 0.41
1034 H 40.1489 76.231 47.0379 H 0 **** 0.41
1035 H 46.7129 79.9308 57.9313 H 0 **** 0.053
1036 H 47.4877 78.5581 58.7138 H 0 **** 0.053
1037 H 45.8064 78.9493 59.1219 H 0 **** 0.053
1038 H 48.6776 76.9374 57.6955 H 0 **** 0.053
1039 H 48.1292 75.2722 57.4531 H 0 **** 0.053
1040 H 47.5199 76.196 58.8329 H 0 **** 0.053
1041 C 19.1638 -3.03318 23.0519 C.2 0 **** 0
1042 C 19.1237 -4.05788 22.1193 C.2 0 **** 0
1043 C 19.7272 -3.89272 20.8827 C.2 0 **** 0
1044 C 20.3734 -2.71397 20.6036 C.2 0 **** 0
1045 C 20.4653 -1.70436 21.5541 C.2 0 **** 0
1046 C 19.8658 -1.8712 22.7853 C.2 0 **** 0
1047 C 21.0236 -2.49504 19.2521 C.3 0 **** -0.106
1048 C 20.8031 -3.53097 18.1583 C.2 0 **** 0
1049 C 20.1595 -4.70653 18.428 C.2 0 **** 0
1050 C 19.6702 -5.00855 19.8429 C.3 0 **** -0.106
1051 C 19.9471 -5.62802 17.3977 C.2 0 **** 0
1052 C 20.3089 -5.34165 16.0962 C.2 0 **** 0
1053 C 21.0523 -4.19495 15.8412 C.2 0 **** 0
1054 C 21.2891 -3.27021 16.8654 C.2 0 **** 0
1055 C 21.9814 -2.09858 16.5991 C.2 0 **** -0.1268
1056 C 22.3593 -1.68749 15.3377 C.2 0 **** 0
1057 C 21.9676 -2.59335 14.2893 C.2 0 **** 0
1058 C 21.5482 -3.89494 14.5757 C.2 0 **** 0.042
1059 C 22.2467 -2.22211 12.8192 C.3 0 **** 0
1060 C 22.9814 -0.911567 12.5263 C.3 0 **** 0
1061 C 23.5538 -0.12829 13.7247 C.2 0 **** 0
1062 C 23.2131 -0.497723 15.0674 C.2 0 **** 0
1063 C 22.5684 -0.229523 11.2047 C.3 0 **** -0.106
1064 C 21.0465 -0.182748 11.0355 C.3 0 **** -0.053
1065 C 20.4246 -1.61201 11.0054 C.3 0 **** -0.053
1066 C 21.3217 -2.68921 11.6696 C.3 0 **** -0.106
1067 C 23.8529 0.231913 16.0895 C.2 0 **** 0.042
1068 C 24.7272 1.2549 15.7896 C.2 0 **** 0.052
1069 C 25.0524 1.56419 14.4774 C.2 0 **** 0.052
1070 C 24.5145 0.829508 13.454 C.2 0 **** 0.042
1071 C 26.0134 2.66817 14.1209 C.2 0 **** 0.367
1072 C 26.6045 3.42754 15.2623 C.2 0 **** 0
1073 C 26.3075 3.12469 16.5317 C.2 0 **** 0
1074 C 25.3642 2.04399 16.9048 C.2 0 **** 0.367
1075 C 26.9027 3.90526 17.6809 C.3 0 **** -0.106
1076 C 27.0443 5.39018 17.2622 C.3 0 **** -0.106
1077 C 27.8054 5.51676 15.9423 C.2 0 **** 0
1078 C 27.5776 4.54709 14.9393 C.2 0 **** 0.2405
1079 N 28.192 4.60171 13.7386 N.2 0 **** -0.481
1080 C 28.9555 5.65786 13.4757 C.2 0 **** 0.2405
1081 C 29.2465 6.64425 14.4466 C.2 0 **** 0
1082 C 28.6694 6.55262 15.6883 C.2 0 **** 0
1083 C 28.9296 7.59846 16.7651 C.3 0 **** -0.106
1084 C 30.1492 8.47667 16.4598 C.3 0 **** -0.106
1085 C 30.126 8.93536 15.0054 C.3 0 **** -0.106
1086 C 30.2435 7.71338 14.0748 C.3 0 **** -0.053
1087 C 30.0564 8.11536 12.5879 C.3 0 **** -0.106
1088 C 30.0795 6.88468 11.7209 C.2 0 **** 0
1089 C 29.511 5.69184 12.1717 C.2 0 **** 0
1090 C 29.5036 4.56849 11.3254 C.2 0 **** -0.1268
1091 C 30.0314 4.66834 10.0525 C.2 0 **** -0.1268
1092 C 30.5583 5.85876 9.58344 C.2 0 **** 0
1093 C 30.5637 6.97481 10.4199 C.2 0 **** 0
1094 C 19.9994 -0.807931 23.8452 C.3 0 **** -0.106
1095 C 18.9333 0.293551 23.6654 C.3 0 **** -0.159
1096 C 18.4368 -3.19851 24.3613 C.3 0 **** -0.159
1097 C 21.2093 -0.443921 21.1768 C.3 0 **** -0.159
1098 C 18.4166 -5.35177 22.4418 C.3 0 **** -0.159
1099 C 19.2534 -6.94209 17.7576 C.3 0 **** -0.159
1100 C 19.854 -6.3074 15.0277 C.3 0 **** -0.159
1101 O 21.5555 -4.82685 13.5765 O.3 0 **** -0.452
1102 C 20.146 -2.13408 9.59419 C.3 0 **** -0.159
1103 C 20.7405 0.651529 9.78599 C.3 0 **** -0.159
1104 O 24.8765 1.00148 12.1453 O.3 0 **** -0.452
1105 O 23.6271 -0.0726369 17.3923 O.3 0 **** -0.452
1106 O 25.1254 1.80399 18.0449 O.2 0 **** -0.419
1107 O 26.2467 2.93558 12.9785 O.2 0 **** -0.419
1108 C 31.101 8.29598 9.89575 C.3 0 **** -0.159
1109 C 31.0903 5.89911 8.16478 C.3 0 **** -0.159
1110 H 20.651 -1.51923 18.8629 H 0 **** 0.053
1111 H 22.1239 -2.37648 19.4074 H 0 **** 0.053
1112 H 20.2528 -5.87559 20.2376 H 0 **** 0.053
1113 H 18.6136 -5.34855 19.7687 H 0 **** 0.053
1114 H 22.1685 -1.48966 17.4547 H 0 **** 0.1268
1115 H 22.956 0.788994 11.1428 H 0 **** 0.053
1116 H 23.0223 -0.817598 10.4039 H 0 **** 0.053
1117 H 20.6274 0.352735 11.9064 H 0 **** 0.053
1118 H 19.4749 -1.56663 11.5545 H 0 **** 0.053
1119 H 22.0181 -3.08241 10.9234 H 0 **** 0.053
1120 H 20.6783 -3.51852 11.9874 H 0 **** 0.053
1121 H 26.2911 3.84495 18.5996 H 0 **** 0.053
1122 H 27.8886 3.47409 17.927 H 0 **** 0.053
1123 H 27.5275 5.92204 18.0999 H 0 **** 0.053
1124 H 26.0292 5.83213 17.1699 H 0 **** 0.053
1125 H 28.0393 8.2483 16.8664 H 0 **** 0.053
1126 H 29.0925 7.13089 17.7529 H 0 **** 0.053
1127 H 31.0781 7.90278 16.64 H 0 **** 0.053
1128 H 30.1822 9.34477 17.1442 H 0 **** 0.053
1129 H 30.9473 9.64712 14.7959 H 0 **** 0.053
1130 H 29.1809 9.46941 14.7973 H 0 **** 0.053
1131 H 31.2752 7.30057 14.1925 H 0 **** 0.053
1132 H 29.0833 8.6457 12.4748 H 0 **** 0.053
1133 H 30.8463 8.85154 12.3232 H 0 **** 0.053
1134 H 29.0764 3.6151 11.6602 H 0 **** 0.1268
1135 H 30.0173 3.78598 9.39261 H 0 **** 0.1268
1136 H 21.0047 -0.343221 23.8465 H 0 **** 0.053
1137 H 19.9125 -1.2223 24.8652 H 0 **** 0.053
1138 H 17.9156 -0.127969 23.712 H 0 **** 0.053
1139 H 19.0432 0.805957 22.6956 H 0 **** 0.053
1140 H 19.0065 1.06675 24.4564 H 0 **** 0.053
1141 H 17.5423 -3.84645 24.2782 H 0 **** 0.053
1142 H 18.0449 -2.24251 24.7577 H 0 **** 0.053
1143 H 19.0887 -3.63767 25.1481 H 0 **** 0.053
1144 H 20.7298 0.0709837 20.314 H 0 **** 0.053
1145 H 22.2604 -0.655711 20.8847 H 0 **** 0.053
1146 H 21.2677 0.317338 21.9687 H 0 **** 0.053
1147 H 18.7957 -6.2185 21.8666 H 0 **** 0.053
1148 H 17.3252 -5.2844 22.2361 H 0 **** 0.053
1149 H 18.5355 -5.64589 23.5021 H 0 **** 0.053
1150 H 19.5942 -7.78635 17.1327 H 0 **** 0.053
1151 H 18.1465 -6.87018 17.6534 H 0 **** 0.053
1152 H 19.4568 -7.2779 18.8 H 0 **** 0.053
1153 H 19.4849 -5.7821 14.119 H 0 **** 0.053
1154 H 18.9772 -6.94941 15.315 H 0 **** 0.053
1155 H 20.6594 -7.01411 14.6979 H 0 **** 0.053
1156 H 22.1536 -4.54459 12.8795 H 0 **** 0.41
1157 H 19.3963 -1.52208 9.0751 H 0 **** 0.053
1158 H 19.7547 -3.16843 9.63475 H 0 **** 0.053
1159 H 21.0697 -2.15615 8.98279 H 0 **** 0.053
1160 H 21.1394 1.6777 9.89457 H 0 **** 0.053
1161 H 19.6568 0.734886 9.61505 H 0 **** 0.053
1162 H 21.2094 0.216436 8.88087 H 0 **** 0.053
1163 H 25.4364 1.79072 12.0875 H 0 **** 0.41
1164 H 24.1071 0.54467 17.9647 H 0 **** 0.41
1165 H 30.391 9.12386 10.0806 H 0 **** 0.053
1166 H 31.2813 8.29954 8.80383 H 0 **** 0.053
1167 H 32.0661 8.56505 10.3729 H 0 **** 0.053
1168 H 30.5198 6.60274 7.53124 H 0 **** 0.053
1169 H 31.0294 4.91414 7.6693 H 0 **** 0.053
1170 H 32.1514 6.20235 8.13162 H 0 **** 0.053
1171 C 11.1899 70.4868 78.1669 C.2 0 **** 0
1172 C 10.8681 69.1534 77.9678 C.2 0 **** 0
1173 C 11.5869 68.163 78.6179 C.2 0 **** 0
1174 C 12.6047 68.5206 79.4671 C.2 0 **** 0
1175 C 12.8962 69.8567 79.7138 C.2 0 **** 0
1176 C 12.1781 70.8414 79.0678 C.2 0 **** 0
1177 C 13.4232 67.4599 80.1751 C.3 0 **** -0.106
1178 C 13.2092 65.9999 79.7996 C.2 0 **** 0
1179 C 12.1988 65.6359 78.9537 C.2 0 **** 0
1180 C 11.2512 66.6918 78.3887 C.3 0 **** -0.106
1181 C 12.0428 64.2906 78.6048 C.2 0 **** 0
1182 C 12.9354 63.3309 79.0395 C.2 0 **** 0
1183 C 13.898 63.6836 79.9785 C.2 0 **** 0
1184 C 14.0563 65.0237 80.3519 C.2 0 **** 0
1185 C 15.0538 65.3847 81.245 C.2 0 **** -0.1268
1186 C 16.0241 64.5251 81.7169 C.2 0 **** 0
1187 C 15.9192 63.1873 81.1949 C.2 0 **** 0
1188 C 14.7606 62.751 80.5471 C.2 0 **** 0.042
1189 C 16.9873 62.1397 81.5668 C.3 0 **** 0
1190 C 18.1071 62.551 82.526 C.3 0 **** 0
1191 C 18.0003 63.933 83.2011 C.2 0 **** 0
1192 C 17.0131 64.8798 82.7721 C.2 0 **** 0
1193 C 19.4582 61.851 82.2681 C.3 0 **** -0.106
1194 C 19.8308 61.8548 80.7822 C.3 0 **** -0.053
1195 C 18.7733 61.1009 79.9197 C.3 0 **** -0.053
1196 C 17.3825 60.9985 80.5992 C.3 0 **** -0.106
1197 C 16.9478 66.0799 83.5083 C.2 0 **** 0.042
1198 C 17.8137 66.3176 84.5546 C.2 0 **** 0.052
1199 C 18.7373 65.3646 84.9571 C.2 0 **** 0.052
1200 C 18.7826 64.1527 84.3206 C.2 0 **** 0.042
1201 C 19.6864 65.5925 86.1045 C.2 0 **** 0.367
1202 C 19.5883 66.912 86.7952 C.2 0 **** 0
1203 C 18.6892 67.8307 86.4224 C.2 0 **** 0
1204 C 17.7466 67.6284 85.2961 C.2 0 **** 0.367
1205 C 18.6037 69.1687 87.1202 C.3 0 **** -0.106
1206 C 20.0294 69.616 87.5298 C.3 0 **** -0.106
1207 C 20.7376 68.5226 88.33 C.2 0 **** 0
1208 C 20.5298 67.1752 87.9568 C.2 0 **** 0.2405
1209 N 21.1381 66.1538 88.5967 N.2 0 **** -0.481
1210 C 22.0261 66.4488 89.5408 C.2 0 **** 0.2405
1211 C 22.2555 67.7737 89.9793 C.2 0 **** 0
1212 C 21.5898 68.8063 89.368 C.2 0 **** 0
1213 C 21.8153 70.2545 89.784 C.3 0 **** -0.106
1214 C 22.5103 70.3817 91.1452 C.3 0 **** -0.106
1215 C 23.6891 69.4184 91.2348 C.3 0 **** -0.106
1216 C 23.1791 67.9669 91.1562 C.3 0 **** -0.053
1217 C 24.3552 66.9582 91.0756 C.3 0 **** -0.106
1218 C 23.8186 65.5625 90.9007 C.2 0 **** 0
1219 C 22.6829 65.3345 90.1215 C.2 0 **** 0
1220 C 22.2283 64.0168 89.9344 C.2 0 **** -0.1268
1221 C 22.9262 62.9666 90.4989 C.2 0 **** -0.1268
1222 C 24.0768 63.1812 91.2371 C.2 0 **** 0
1223 C 24.5313 64.4868 91.4209 C.2 0 **** 0
1224 C 12.4464 72.2947 79.3629 C.3 0 **** -0.106
1225 C 13.6177 72.8281 78.5108 C.3 0 **** -0.159
1226 C 10.45 71.5477 77.3943 C.3 0 **** -0.159
1227 C 14.0191 70.1693 80.6758 C.3 0 **** -0.159
1228 C 9.7415 68.7741 77.038 C.3 0 **** -0.159
1229 C 10.877 63.9304 77.6835 C.3 0 **** -0.159
1230 C 12.8023 61.9487 78.4451 C.3 0 **** -0.159
1231 O 14.544 61.4086 80.4126 O.3 0 **** -0.452
1232 C 19.1647 59.6603 79.5842 C.3 0 **** -0.159
1233 C 21.2504 61.2894 80.6546 C.3 0 **** -0.159
1234 O 19.5864 63.1251 84.7349 O.3 0 **** -0.452
1235 O 16.0161 67.0187 83.2061 O.3 0 **** -0.452
1236 O 16.9604 68.468 84.9954 O.2 0 **** -0.419
1237 O 20.4978 64.7661 86.4056 O.2 0 **** -0.419
1238 C 25.818 64.7257 92.193 C.3 0 **** -0.159
1239 C 24.8056 61.9766 91.7983 C.3 0 **** -0.159
1240 H 14.4968 67.6951 79.989 H 0 **** 0.053
1241 H 13.2603 67.5675 81.2755 H 0 **** 0.053
1242 H 10.2308 66.504 78.8018 H 0 **** 0.053
1243 H 11.1798 66.5278 77.2908 H 0 **** 0.053
1244 H 15.0542 66.416 81.5176 H 0 **** 0.1268
1245 H 20.2664 62.323 82.8298 H 0 **** 0.053
1246 H 19.3438 60.8264 82.629 H 0 **** 0.053
1247 H 19.858 62.9066 80.4448 H 0 **** 0.053
1248 H 18.6593 61.659 78.981 H 0 **** 0.053
1249 H 17.3598 60.1065 81.2317 H 0 **** 0.053
1250 H 16.6296 60.8631 79.8134 H 0 **** 0.053
1251 H 18.1468 69.9512 86.4874 H 0 **** 0.053
1252 H 17.9584 69.0622 88.0093 H 0 **** 0.053
1253 H 19.9289 70.5673 88.0802 H 0 **** 0.053
1254 H 20.6037 69.8591 86.6104 H 0 **** 0.053
1255 H 22.4338 70.7625 89.0192 H 0 **** 0.053
1256 H 20.8633 70.8125 89.8403 H 0 **** 0.053
1257 H 21.7931 70.1471 91.9546 H 0 **** 0.053
1258 H 22.8411 71.4233 91.3148 H 0 **** 0.053
1259 H 24.258 69.5663 92.1725 H 0 **** 0.053
1260 H 24.3909 69.6099 90.4028 H 0 **** 0.053
1261 H 22.6124 67.7596 92.0967 H 0 **** 0.053
1262 H 25.0066 67.2286 90.2136 H 0 **** 0.053
1263 H 24.9795 67.0754 91.988 H 0 **** 0.053
1264 H 21.3299 63.8109 89.3393 H 0 **** 0.1268
1265 H 22.5672 61.9363 90.3445 H 0 **** 0.1268
1266 H 12.6673 72.4699 80.4341 H 0 **** 0.053
1267 H 11.5594 72.9279 79.1829 H 0 **** 0.053
1268 H 13.4073 72.7183 77.4342 H 0 **** 0.053
1269 H 14.5538 72.2895 78.7312 H 0 **** 0.053
1270 H 13.805 73.9038 78.702 H 0 **** 0.053
1271 H 10.1046 71.1964 76.4022 H 0 **** 0.053
1272 H 11.0774 72.4307 77.1681 H 0 **** 0.053
1273 H 9.55384 71.9141 77.9421 H 0 **** 0.053
1274 H 14.9922 69.7667 80.3145 H 0 **** 0.053
1275 H 13.8387 69.7276 81.6797 H 0 **** 0.053
1276 H 14.199 71.2405 80.8504 H 0 **** 0.053
1277 H 9.28589 67.7924 77.2721 H 0 **** 0.053
1278 H 10.0818 68.7247 75.9799 H 0 **** 0.053
1279 H 8.89882 69.4903 77.0811 H 0 **** 0.053
1280 H 10.4738 62.9222 77.8847 H 0 **** 0.053
1281 H 11.1686 63.9692 76.6089 H 0 **** 0.053
1282 H 9.99656 64.6022 77.8025 H 0 **** 0.053
1283 H 13.791 61.5047 78.1941 H 0 **** 0.053
1284 H 12.2568 61.9081 77.463 H 0 **** 0.053
1285 H 12.276 61.2256 79.1211 H 0 **** 0.053
1286 H 15.0645 60.9339 81.066 H 0 **** 0.41
1287 H 20.0708 59.619 78.9652 H 0 **** 0.053
1288 H 18.3559 59.1621 79.0167 H 0 **** 0.053
1289 H 19.3361 59.0653 80.5028 H 0 **** 0.053
1290 H 21.9693 61.9072 81.2251 H 0 **** 0.053
1291 H 21.5844 61.2772 79.6063 H 0 **** 0.053
1292 H 21.3166 60.2598 81.0594 H 0 **** 0.053
1293 H 20.1741 63.4612 85.4283 H 0 **** 0.41
1294 H 16.1373 67.7987 83.7685 H 0 **** 0.41
1295 H 26.5083 65.3863 91.6358 H 0 **** 0.053
1296 H 26.3925 63.8014 92.3947 H 0 **** 0.053
1297 H 25.624 65.1946 93.1799 H 0 **** 0.053
1298 H 25.8213 61.8755 91.3741 H 0 **** 0.053
1299 H 24.2795 61.0315 91.5764 H 0 **** 0.053
1300 H 24.9045 62.0305 92.8966 H 0 **** 0.053
1301 C 21.4472 70.4681 33.2188 C.2 0 **** 0
1302 C 22.6286 70.1857 33.8869 C.2 0 **** 0
1303 C 22.9041 68.8871 34.2853 C.2 0 **** 0
1304 C 22.0039 67.8907 33.999 C.2 0 **** 0
1305 C 20.845 68.1573 33.2802 C.2 0 **** 0
1306 C 20.574 69.4494 32.8803 C.2 0 **** 0
1307 C 22.2651 66.4659 34.4451 C.3 0 **** -0.106
1308 C 23.4533 66.192 35.356 C.2 0 **** 0
1309 C 24.3529 67.1785 35.6463 C.2 0 **** 0
1310 C 24.1931 68.5706 35.0397 C.3 0 **** -0.106
1311 C 25.418 66.9043 36.5087 C.2 0 **** 0
1312 C 25.5424 65.6791 37.1313 C.2 0 **** 0
1313 C 24.6888 64.648 36.7577 C.2 0 **** 0
1314 C 23.6252 64.9001 35.8826 C.2 0 **** 0
1315 C 22.7385 63.8859 35.5549 C.2 0 **** -0.1268
1316 C 22.7363 62.636 36.1385 C.2 0 **** 0
1317 C 23.7529 62.461 37.1431 C.2 0 **** 0
1318 C 24.8194 63.3562 37.2581 C.2 0 **** 0.042
1319 C 23.8153 61.1438 37.9413 C.3 0 **** 0
1320 C 22.8127 60.0387 37.6005 C.3 0 **** 0
1321 C 21.9173 60.2409 36.3617 C.2 0 **** 0
1322 C 21.8701 61.5091 35.6952 C.2 0 **** 0
1323 C 22.3897 59.1677 38.8023 C.3 0 **** -0.106
1324 C 22.0418 60.0154 40.0299 C.3 0 **** -0.053
1325 C 23.2583 60.8644 40.509 C.3 0 **** -0.053
1326 C 24.3208 61.0989 39.4033 C.3 0 **** -0.106
1327 C 21.0829 61.564 34.5274 C.2 0 **** 0.042
1328 C 20.3857 60.4579 34.09 C.2 0 **** 0.052
1329 C 20.479 59.2404 34.7473 C.2 0 **** 0.052
1330 C 21.294 59.1209 35.8416 C.2 0 **** 0.042
1331 C 19.7381 58.0132 34.2848 C.2 0 **** 0.367
1332 C 18.8833 58.1717 33.0714 C.2 0 **** 0
1333 C 18.8004 59.3394 32.4229 C.2 0 **** 0
1334 C 19.5193 60.5599 32.8606 C.2 0 **** 0.367
1335 C 17.9237 59.4944 31.2014 C.3 0 **** -0.106
1336 C 16.6529 58.6262 31.379 C.3 0 **** -0.106
1337 C 17.0197 57.1824 31.7229 C.2 0 **** 0
1338 C 18.1225 56.9544 32.5772 C.2 0 **** 0.2405
1339 N 18.4943 55.711 32.9488 N.2 0 **** -0.481
1340 C 17.7337 54.6908 32.5648 C.2 0 **** 0.2405
1341 C 16.6367 54.8507 31.6865 C.2 0 **** 0
1342 C 16.2971 56.1105 31.2615 C.2 0 **** 0
1343 C 15.1113 56.3438 30.3338 C.3 0 **** -0.106
1344 C 14.6299 55.0592 29.6481 C.3 0 **** -0.106
1345 C 14.5378 53.9184 30.656 C.3 0 **** -0.106
1346 C 15.9403 53.6009 31.2085 C.3 0 **** -0.053
1347 C 15.8727 52.5614 32.3584 C.3 0 **** -0.106
1348 C 17.2465 52.3516 32.9373 C.2 0 **** 0
1349 C 18.1371 53.4209 33.0492 C.2 0 **** 0
1350 C 19.3975 53.2097 33.6365 C.2 0 **** -0.1268
1351 C 19.7252 51.9575 34.1194 C.2 0 **** -0.1268
1352 C 18.8317 50.9031 34.0505 C.2 0 **** 0
1353 C 17.5801 51.1111 33.4716 C.2 0 **** 0
1354 C 19.3479 69.747 32.0552 C.3 0 **** -0.106
1355 C 18.109 69.9478 32.9534 C.3 0 **** -0.159
1356 C 21.1161 71.8936 32.8629 C.3 0 **** -0.159
1357 C 19.9123 67.004 32.9901 C.3 0 **** -0.159
1358 C 23.6158 71.2839 34.1963 C.3 0 **** -0.159
1359 C 26.4137 68.0285 36.7732 C.3 0 **** -0.159
1360 C 26.6073 65.5523 38.1951 C.3 0 **** -0.159
1361 O 25.9392 62.9674 37.9379 O.3 0 **** -0.452
1362 C 24.0242 60.2403 41.6773 C.3 0 **** -0.159
1363 C 21.4819 59.0751 41.1038 C.3 0 **** -0.159
1364 O 21.523 57.9274 36.4712 O.3 0 **** -0.452
1365 O 21.0105 62.7094 33.8039 O.3 0 **** -0.452
1366 O 19.4207 61.5798 32.2581 O.2 0 **** -0.419
1367 O 19.8079 56.9859 34.8944 O.2 0 **** -0.419
1368 C 16.5784 49.9692 33.4329 C.3 0 **** -0.159
1369 C 19.251 49.5668 34.63 C.3 0 **** -0.159
1370 H 21.3515 66.1173 34.9801 H 0 **** 0.053
1371 H 22.3649 65.8262 33.5344 H 0 **** 0.053
1372 H 25.0497 68.7526 34.3464 H 0 **** 0.053
1373 H 24.2935 69.3114 35.8634 H 0 **** 0.053
1374 H 22.002 64.1572 34.8327 H 0 **** 0.1268
1375 H 21.5301 58.5408 38.5583 H 0 **** 0.053
1376 H 23.2385 58.5151 39.0186 H 0 **** 0.053
1377 H 21.234 60.7113 39.7401 H 0 **** 0.053
1378 H 22.8701 61.8406 40.8281 H 0 **** 0.053
1379 H 25.0271 60.2639 39.4048 H 0 **** 0.053
1380 H 24.8831 62.005 39.659 H 0 **** 0.053
1381 H 17.6236 60.5429 31.0221 H 0 **** 0.053
1382 H 18.4952 59.1714 30.314 H 0 **** 0.053
1383 H 16.0602 58.7197 30.4527 H 0 **** 0.053
1384 H 16.0279 59.0709 32.1827 H 0 **** 0.053
1385 H 14.2723 56.7741 30.9138 H 0 **** 0.053
1386 H 15.3544 57.0753 29.5421 H 0 **** 0.053
1387 H 15.3391 54.7744 28.8478 H 0 **** 0.053
1388 H 13.6545 55.2264 29.1545 H 0 **** 0.053
1389 H 14.101 53.0113 30.1966 H 0 **** 0.053
1390 H 13.8693 54.2084 31.4869 H 0 **** 0.053
1391 H 16.5352 53.1533 30.3752 H 0 **** 0.053
1392 H 15.1789 52.9356 33.1453 H 0 **** 0.053
1393 H 15.419 51.6281 31.9597 H 0 **** 0.053
1394 H 20.1222 54.0289 33.7229 H 0 **** 0.1268
1395 H 20.7128 51.7999 34.5822 H 0 **** 0.1268
1396 H 19.1359 68.948 31.3183 H 0 **** 0.053
1397 H 19.4772 70.6437 31.4233 H 0 **** 0.053
1398 H 18.2652 70.7735 33.6671 H 0 **** 0.053
1399 H 17.8805 69.0384 33.5332 H 0 **** 0.053
1400 H 17.2071 70.1932 32.3575 H 0 **** 0.053
1401 H 21.5556 72.6283 33.5641 H 0 **** 0.053
1402 H 20.031 72.1017 32.8901 H 0 **** 0.053
1403 H 21.4536 72.1558 31.839 H 0 **** 0.053
1404 H 19.5228 66.5478 33.9279 H 0 **** 0.053
1405 H 20.4194 66.1949 32.4218 H 0 **** 0.053
1406 H 19.018 67.264 32.4048 H 0 **** 0.053
1407 H 24.6563 70.9253 34.3101 H 0 **** 0.053
1408 H 23.3544 71.8208 35.1335 H 0 **** 0.053
1409 H 23.6736 72.0365 33.3936 H 0 **** 0.053
1410 H 27.435 67.6495 36.953 H 0 **** 0.053
1411 H 26.1201 68.6473 37.652 H 0 **** 0.053
1412 H 26.5273 68.7258 35.9121 H 0 **** 0.053
1413 H 26.2447 64.9894 39.0838 H 0 **** 0.053
1414 H 26.9471 66.5262 38.642 H 0 **** 0.053
1415 H 27.5355 65.0379 37.8333 H 0 **** 0.053
1416 H 25.9739 62.0077 37.974 H 0 **** 0.41
1417 H 23.4001 60.1633 42.5777 H 0 **** 0.053
1418 H 24.9031 60.8597 41.9385 H 0 **** 0.053
1419 H 24.3992 59.2303 41.4193 H 0 **** 0.053
1420 H 20.577 58.5564 40.7351 H 0 **** 0.053
1421 H 21.1989 59.6275 42.0124 H 0 **** 0.053
1422 H 22.2142 58.2905 41.38 H 0 **** 0.053
1423 H 20.9229 57.2663 36.0946 H 0 **** 0.41
1424 H 20.3968 62.5956 33.0625 H 0 **** 0.41
1425 H 15.5919 50.282 33.8232 H 0 **** 0.053
1426 H 16.8756 49.0973 34.0464 H 0 **** 0.053
1427 H 16.4287 49.5888 32.4012 H 0 **** 0.053
1428 H 18.6082 49.2654 35.4772 H 0 **** 0.053
1429 H 20.2856 49.5868 35.0154 H 0 **** 0.053
1430 H 19.2123 48.7611 33.8762 H 0 **** 0.053
1431 C 22.3158 57.9955 67.5902 C.2 0 **** 0
1432 C 21.9348 59.3122 67.3851 C.2 0 **** 0
1433 C 22.2863 59.9592 66.2118 C.2 0 **** 0
1434 C 22.9942 59.2762 65.2542 C.2 0 **** 0
1435 C 23.3325 57.94 65.4304 C.2 0 **** 0
1436 C 22.9821 57.297 66.5993 C.2 0 **** 0
1437 C 23.4115 59.9631 63.9692 C.3 0 **** -0.106
1438 C 23.1904 61.4628 63.8417 C.2 0 **** 0
1439 C 22.5014 62.1494 64.8004 C.2 0 **** 0
1440 C 21.8947 61.4157 65.992 C.3 0 **** -0.106
1441 C 22.3691 63.5361 64.6904 C.2 0 **** 0
1442 C 22.9396 64.2314 63.6399 C.2 0 **** 0
1443 C 23.5368 63.5175 62.6056 C.2 0 **** 0
1444 C 23.6928 62.1312 62.7118 C.2 0 **** 0
1445 C 24.3582 61.4293 61.7186 C.2 0 **** -0.1268
1446 C 25.0157 62.0177 60.658 C.2 0 **** 0
1447 C 24.9475 63.4549 60.6544 C.2 0 **** 0
1448 C 24.0394 64.1371 61.4674 C.2 0 **** 0.042
1449 C 25.7097 64.2535 59.5792 C.3 0 **** 0
1450 C 26.4882 63.4773 58.5139 C.3 0 **** 0
1451 C 26.3124 61.9461 58.4728 C.2 0 **** 0
1452 C 25.632 61.2617 59.533 C.2 0 **** 0
1453 C 27.7659 64.1843 58.0109 C.3 0 **** -0.106
1454 C 28.6087 64.7367 59.1648 C.3 0 **** -0.053
1455 C 27.8211 65.7911 60.0003 C.3 0 **** -0.053
1456 C 26.2807 65.6652 59.8598 C.3 0 **** -0.106
1457 C 25.4594 59.8737 59.3615 C.2 0 **** 0.042
1458 C 25.9489 59.2323 58.2439 C.2 0 **** 0.052
1459 C 26.5762 59.9341 57.2258 C.2 0 **** 0.052
1460 C 26.699 61.2951 57.3154 C.2 0 **** 0.042
1461 C 27.1105 59.26 55.9899 C.2 0 **** 0.367
1462 C 26.9356 57.7799 55.9126 C.2 0 **** 0
1463 C 26.3172 57.0979 56.8838 C.2 0 **** 0
1464 C 25.784 57.7406 58.1084 C.2 0 **** 0.367
1465 C 26.1535 55.5972 56.803 C.3 0 **** -0.106
1466 C 27.4027 54.9883 56.1178 C.3 0 **** -0.106
1467 C 27.6819 55.6738 54.7801 C.2 0 **** 0
1468 C 27.4631 57.0669 54.68 C.2 0 **** 0.2405
1469 N 27.71 57.7494 53.5418 N.2 0 **** -0.481
1470 C 28.2622 57.0921 52.5269 C.2 0 **** 0.2405
1471 C 28.4765 55.6944 52.5546 C.2 0 **** 0
1472 C 28.1677 54.992 53.6923 C.2 0 **** 0
1473 C 28.3991 53.4888 53.7855 C.3 0 **** -0.106
1474 C 28.6129 52.8328 52.4157 C.3 0 **** -0.106
1475 C 29.5831 53.6561 51.5751 C.3 0 **** -0.106
1476 C 28.9732 55.0415 51.2886 C.3 0 **** -0.053
1477 C 29.9923 55.9718 50.5791 C.3 0 **** -0.106
1478 C 29.3954 57.343 50.4053 C.2 0 **** 0
1479 C 28.5643 57.8821 51.3891 C.2 0 **** 0
1480 C 28.0569 59.1836 51.2258 C.2 0 **** -0.1268
1481 C 28.4098 59.9195 50.1111 C.2 0 **** -0.1268
1482 C 29.2667 59.4079 49.1525 C.2 0 **** 0
1483 C 29.7738 58.1188 49.3143 C.2 0 **** 0
1484 C 23.295 55.8347 66.7844 C.3 0 **** -0.106
1485 C 24.7331 55.6347 67.3077 C.3 0 **** -0.159
1486 C 21.9954 57.3311 68.9039 C.3 0 **** -0.159
1487 C 24.1017 57.2547 64.3247 C.3 0 **** -0.159
1488 C 21.1468 60.0492 68.4405 C.3 0 **** -0.159
1489 C 21.5068 64.2494 65.7362 C.3 0 **** -0.159
1490 C 22.8299 65.7374 63.6731 C.3 0 **** -0.159
1491 O 23.7399 65.4354 61.1745 O.3 0 **** -0.452
1492 C 28.1433 67.2395 59.6262 C.3 0 **** -0.159
1493 C 29.9202 65.2688 58.5741 C.3 0 **** -0.159
1494 O 27.2083 62.0642 56.3042 O.3 0 **** -0.452
1495 O 24.7938 59.1458 60.2932 O.3 0 **** -0.452
1496 O 25.2377 57.1007 58.9478 O.2 0 **** -0.419
1497 O 27.6827 59.8852 55.1451 O.2 0 **** -0.419
1498 C 30.7497 57.5681 48.2878 C.3 0 **** -0.159
1499 C 29.6326 60.2867 47.9731 C.3 0 **** -0.159
1500 H 24.5051 59.7855 63.8445 H 0 **** 0.053
1501 H 22.9066 59.4506 63.1138 H 0 **** 0.053
1502 H 20.7834 61.4654 65.914 H 0 **** 0.053
1503 H 22.1676 61.983 66.9091 H 0 **** 0.053
1504 H 24.3799 60.3724 61.8598 H 0 **** 0.1268
1505 H 28.3885 63.5113 57.4184 H 0 **** 0.053
1506 H 27.4285 64.9967 57.3634 H 0 **** 0.053
1507 H 28.8605 63.8928 59.832 H 0 **** 0.053
1508 H 28.0865 65.6365 61.0546 H 0 **** 0.053
1509 H 25.9535 66.2499 58.9953 H 0 **** 0.053
1510 H 25.8224 66.1113 60.7501 H 0 **** 0.053
1511 H 26.0208 55.1283 57.795 H 0 **** 0.053
1512 H 25.2426 55.3733 56.2213 H 0 **** 0.053
1513 H 27.2296 53.9021 56.0265 H 0 **** 0.053
1514 H 28.2723 55.098 56.8004 H 0 **** 0.053
1515 H 29.2875 53.2937 54.4164 H 0 **** 0.053
1516 H 27.549 52.9777 54.2724 H 0 **** 0.053
1517 H 27.6469 52.7606 51.8807 H 0 **** 0.053
1518 H 28.98 51.7965 52.536 H 0 **** 0.053
1519 H 29.8213 53.1462 50.6222 H 0 **** 0.053
1520 H 30.5376 53.7769 52.1191 H 0 **** 0.053
1521 H 28.1078 54.8899 50.5981 H 0 **** 0.053
1522 H 30.9181 56.0326 51.1954 H 0 **** 0.053
1523 H 30.2874 55.4982 49.6175 H 0 **** 0.053
1524 H 27.3899 59.6256 51.9766 H 0 **** 0.1268
1525 H 28.0123 60.9403 49.9915 H 0 **** 0.1268
1526 H 23.1662 55.2583 65.8476 H 0 **** 0.053
1527 H 22.5928 55.3433 67.4809 H 0 **** 0.053
1528 H 24.8811 56.1531 68.2695 H 0 **** 0.053
1529 H 25.4789 56.0239 66.5954 H 0 **** 0.053
1530 H 24.9632 54.5629 67.4722 H 0 **** 0.053
1531 H 21.9633 58.044 69.751 H 0 **** 0.053
1532 H 22.7552 56.5848 69.2044 H 0 **** 0.053
1533 H 21.0138 56.8085 68.8783 H 0 **** 0.053
1534 H 25.0897 57.7384 64.1529 H 0 **** 0.053
1535 H 23.5531 57.2849 63.3587 H 0 **** 0.053
1536 H 24.33 56.1938 64.5051 H 0 **** 0.053
1537 H 20.5353 60.8799 68.0378 H 0 **** 0.053
1538 H 21.8121 60.4884 69.217 H 0 **** 0.053
1539 H 20.421 59.3945 68.9596 H 0 **** 0.053
1540 H 20.947 65.107 65.3171 H 0 **** 0.053
1541 H 22.1113 64.6254 66.5889 H 0 **** 0.053
1542 H 20.7043 63.6026 66.1651 H 0 **** 0.053
1543 H 23.7806 66.2312 63.3752 H 0 **** 0.053
1544 H 22.6263 66.171 64.6888 H 0 **** 0.053
1545 H 22.0255 66.1395 63.0025 H 0 **** 0.053
1546 H 23.9473 65.606 60.2525 H 0 **** 0.41
1547 H 29.1934 67.4885 59.8301 H 0 **** 0.053
1548 H 27.5197 67.9389 60.2147 H 0 **** 0.053
1549 H 27.935 67.4348 58.5558 H 0 **** 0.053
1550 H 30.4722 64.4607 58.0582 H 0 **** 0.053
1551 H 30.5796 65.6705 59.3581 H 0 **** 0.053
1552 H 29.7364 66.0641 57.8245 H 0 **** 0.053
1553 H 27.5591 61.4711 55.6231 H 0 **** 0.41
1554 H 24.8025 58.2085 60.0494 H 0 **** 0.41
1555 H 31.6532 57.151 48.7706 H 0 **** 0.053
1556 H 31.1206 58.3293 47.5752 H 0 **** 0.053
1557 H 30.2916 56.7638 47.6756 H 0 **** 0.053
1558 H 30.7141 60.5138 47.9487 H 0 **** 0.053
1559 H 29.1104 61.2592 48.0012 H 0 **** 0.053
1560 H 29.367 59.8153 47.0107 H 0 **** 0.053
1561 C 26.6385 40.3633 93.5232 C.2 0 **** 0
1562 C 27.6579 40.5041 94.4519 C.2 0 **** 0
1563 C 28.6591 39.5494 94.5311 C.2 0 **** 0
1564 C 28.6343 38.4785 93.6725 C.2 0 **** 0
1565 C 27.6463 38.3603 92.7023 C.2 0 **** 0
1566 C 26.6516 39.3128 92.6232 C.2 0 **** 0
1567 C 29.7025 37.4063 93.75 C.3 0 **** -0.106
1568 C 30.7001 37.4501 94.8994 C.2 0 **** 0
1569 C 30.7304 38.5125 95.7591 C.2 0 **** 0
1570 C 29.7742 39.6871 95.5641 C.3 0 **** -0.106
1571 C 31.6394 38.5133 96.8219 C.2 0 **** 0
1572 C 32.457 37.4273 97.0645 C.2 0 **** 0
1573 C 32.4983 36.395 96.1343 C.2 0 **** 0
1574 C 31.607 36.3875 95.0545 C.2 0 **** 0
1575 C 31.6083 35.3298 94.1579 C.2 0 **** -0.1268
1576 C 32.3504 34.1775 94.3149 C.2 0 **** 0
1577 C 33.1443 34.1566 95.5159 C.2 0 **** 0
1578 C 33.3761 35.3214 96.2517 C.2 0 **** 0.042
1579 C 33.959 32.8958 95.8674 C.3 0 **** 0
1580 C 33.9309 31.7159 94.8925 C.3 0 **** 0
1581 C 33.2341 31.9264 93.5334 C.2 0 **** 0
1582 C 32.4504 33.1018 93.2901 C.2 0 **** 0
1583 C 34.0521 30.3305 95.5622 C.3 0 **** -0.106
1584 C 33.1301 30.1998 96.7785 C.3 0 **** -0.053
1585 C 33.4728 31.2512 97.8765 C.3 0 **** -0.053
1586 C 34.237 32.4868 97.3337 C.3 0 **** -0.106
1587 C 31.9239 33.2344 91.9896 C.2 0 **** 0.042
1588 C 32.1384 32.2625 91.0355 C.2 0 **** 0.052
1589 C 32.9258 31.1522 91.3015 C.2 0 **** 0.052
1590 C 33.5224 31.0218 92.5275 C.2 0 **** 0.042
1591 C 33.1874 30.082 90.2744 C.2 0 **** 0.367
1592 C 32.5471 30.2719 88.9395 C.2 0 **** 0
1593 C 31.7985 31.3482 88.6704 C.2 0 **** 0
1594 C 31.527 32.4131 89.6657 C.2 0 **** 0.367
1595 C 31.1446 31.5276 87.3193 C.3 0 **** -0.106
1596 C 30.7124 30.1409 86.7801 C.3 0 **** -0.106
1597 C 31.8829 29.1575 86.7974 C.2 0 **** 0
1598 C 32.7905 29.212 87.8796 C.2 0 **** 0.2405
1599 N 33.8353 28.3629 87.98 N.2 0 **** -0.481
1600 C 33.9414 27.3936 87.0766 C.2 0 **** 0.2405
1601 C 33.0838 27.3043 85.9556 C.2 0 **** 0
1602 C 32.0594 28.2076 85.8225 C.2 0 **** 0
1603 C 31.0917 28.1444 84.6476 C.3 0 **** -0.106
1604 C 31.6091 27.2731 83.4964 C.3 0 **** -0.106
1605 C 32.173 25.9611 84.0319 C.3 0 **** -0.106
1606 C 33.3954 26.2487 84.9241 C.3 0 **** -0.053
1607 C 33.8999 24.9591 85.6239 C.3 0 **** -0.106
1608 C 35.0293 25.2965 86.5604 C.2 0 **** 0
1609 C 35.0159 26.4917 87.2818 C.2 0 **** 0
1610 C 36.0582 26.7625 88.1863 C.2 0 **** -0.1268
1611 C 37.0632 25.8324 88.3694 C.2 0 **** -0.1268
1612 C 37.0611 24.6272 87.6894 C.2 0 **** 0
1613 C 36.0264 24.3551 86.7948 C.2 0 **** 0
1614 C 25.6023 39.2277 91.5446 C.3 0 **** -0.106
1615 C 24.4439 38.2999 91.968 C.3 0 **** -0.159
1616 C 25.5163 41.3685 93.5016 C.3 0 **** -0.159
1617 C 27.6982 37.1619 91.7828 C.3 0 **** -0.159
1618 C 27.6779 41.6904 95.3845 C.3 0 **** -0.159
1619 C 31.6575 39.7397 97.7347 C.3 0 **** -0.159
1620 C 33.2517 37.4381 98.3489 C.3 0 **** -0.159
1621 O 34.4167 35.3481 97.1371 O.3 0 **** -0.452
1622 C 34.3489 30.7004 99.001 C.3 0 **** -0.159
1623 C 33.2025 28.7482 97.2682 C.3 0 **** -0.159
1624 O 34.4019 30.0153 92.8226 O.3 0 **** -0.452
1625 O 31.2064 34.3347 91.65 O.3 0 **** -0.452
1626 O 30.8585 33.3559 89.3881 O.2 0 **** -0.419
1627 O 33.8413 29.1164 90.5431 O.2 0 **** -0.419
1628 C 35.994 23.015 86.0791 C.3 0 **** -0.159
1629 C 38.1801 23.6435 87.967 C.3 0 **** -0.159
1630 H 29.1779 36.4243 93.8049 H 0 **** 0.053
1631 H 30.2728 37.4094 92.789 H 0 **** 0.053
1632 H 30.3767 40.5897 95.3006 H 0 **** 0.053
1633 H 29.3002 39.9029 96.5471 H 0 **** 0.053
1634 H 30.9399 35.4449 93.3347 H 0 **** 0.1268
1635 H 33.819 29.5264 94.8619 H 0 **** 0.053
1636 H 35.0968 30.229 95.8645 H 0 **** 0.053
1637 H 32.0954 30.3873 96.4389 H 0 **** 0.053
1638 H 32.5236 31.5934 98.3098 H 0 **** 0.053
1639 H 35.3097 32.2741 97.3416 H 0 **** 0.053
1640 H 34.0628 33.3232 98.0213 H 0 **** 0.053
1641 H 30.2621 32.1919 87.3576 H 0 **** 0.053
1642 H 31.8701 32.0025 86.6364 H 0 **** 0.053
1643 H 30.2863 30.2988 85.7743 H 0 **** 0.053
1644 H 29.8759 29.7616 87.4052 H 0 **** 0.053
1645 H 30.1219 27.7379 84.994 H 0 **** 0.053
1646 H 30.8832 29.1499 84.2394 H 0 **** 0.053
1647 H 32.4073 27.8102 82.9495 H 0 **** 0.053
1648 H 30.8033 27.0831 82.7629 H 0 **** 0.053
1649 H 32.4613 25.282 83.2069 H 0 **** 0.053
1650 H 31.3992 25.436 84.621 H 0 **** 0.053
1651 H 34.2133 26.6229 84.261 H 0 **** 0.053
1652 H 33.0573 24.5001 86.1898 H 0 **** 0.053
1653 H 34.1862 24.2248 84.8398 H 0 **** 0.053
1654 H 36.0787 27.6999 88.7563 H 0 **** 0.1268
1655 H 37.8729 26.0487 89.0849 H 0 **** 0.1268
1656 H 26.0196 38.8714 90.5827 H 0 **** 0.053
1657 H 25.1871 40.2183 91.2873 H 0 **** 0.053
1658 H 23.9697 38.6564 92.8973 H 0 **** 0.053
1659 H 24.796 37.2698 92.1416 H 0 **** 0.053
1660 H 23.6539 38.2515 91.192 H 0 **** 0.053
1661 H 25.3106 41.8062 94.498 H 0 **** 0.053
1662 H 24.5498 40.9265 93.1931 H 0 **** 0.053
1663 H 25.7263 42.2135 92.8095 H 0 **** 0.053
1664 H 27.6044 36.2081 92.3493 H 0 **** 0.053
1665 H 28.6556 37.1128 91.2208 H 0 **** 0.053
1666 H 26.9038 37.1233 91.0228 H 0 **** 0.053
1667 H 28.6902 41.948 95.7515 H 0 **** 0.053
1668 H 27.0464 41.5158 96.2838 H 0 **** 0.053
1669 H 27.3129 42.6156 94.8991 H 0 **** 0.053
1670 H 32.6611 39.9473 98.1459 H 0 **** 0.053
1671 H 30.9567 39.6291 98.5937 H 0 **** 0.053
1672 H 31.3788 40.6832 97.2123 H 0 **** 0.053
1673 H 33.2504 36.4446 98.8497 H 0 **** 0.053
1674 H 32.8472 38.1177 99.1476 H 0 **** 0.053
1675 H 34.323 37.7352 98.2039 H 0 **** 0.053
1676 H 35.0518 34.6658 96.9048 H 0 **** 0.41
1677 H 33.8352 29.9053 99.5548 H 0 **** 0.053
1678 H 34.5968 31.5015 99.7214 H 0 **** 0.053
1679 H 35.3044 30.299 98.6114 H 0 **** 0.053
1680 H 32.877 28.0516 96.4728 H 0 **** 0.053
1681 H 32.5489 28.585 98.1386 H 0 **** 0.053
1682 H 34.237 28.4627 97.5449 H 0 **** 0.053
1683 H 34.3982 29.3848 92.0871 H 0 **** 0.41
1684 H 30.8747 34.2483 90.7439 H 0 **** 0.41
1685 H 35.0041 22.5301 86.1715 H 0 **** 0.053
1686 H 36.72 22.281 86.4782 H 0 **** 0.053
1687 H 36.2186 23.1213 84.9976 H 0 **** 0.053
1688 H 37.8015 22.7035 88.4087 H 0 **** 0.053
1689 H 38.9208 24.0464 88.6799 H 0 **** 0.053
1690 H 38.7359 23.383 87.0493 H 0 **** 0.053
1691 C 41.3045 90.4222 4.75551 C.2 0 **** 0
1692 C 41.057 89.0719 4.56381 C.2 0 **** 0
1693 C 42.1131 88.1935 4.38184 C.2 0 **** 0
1694 C 43.3985 88.6749 4.40907 C.2 0 **** 0
1695 C 43.6557 90.0181 4.65603 C.2 0 **** 0
1696 C 42.6034 90.8909 4.83949 C.2 0 **** 0
1697 C 44.5732 87.7426 4.19118 C.3 0 **** -0.106
1698 C 44.2973 86.3039 3.7762 C.2 0 **** 0
1699 C 43.0201 85.8173 3.74574 C.2 0 **** 0
1700 C 41.848 86.7082 4.15153 C.3 0 **** -0.106
1701 C 42.7942 84.4996 3.33533 C.2 0 **** 0
1702 C 43.8292 83.702 2.88881 C.2 0 **** 0
1703 C 45.1353 84.1607 3.01638 C.2 0 **** 0
1704 C 45.3799 85.4721 3.44199 C.2 0 **** 0
1705 C 46.6798 85.9494 3.51497 C.2 0 **** -0.1268
1706 C 47.7875 85.2623 3.06334 C.2 0 **** 0
1707 C 47.4812 83.9756 2.49403 C.2 0 **** 0
1708 C 46.2364 83.3728 2.6933 C.2 0 **** 0.042
1709 C 48.6102 83.132 1.86935 C.3 0 **** 0
1710 C 50.0395 83.6781 1.91951 C.3 0 **** 0
1711 C 50.2904 84.9535 2.74865 C.2 0 **** 0
1712 C 49.1913 85.719 3.25928 C.2 0 **** 0
1713 C 50.9182 83.2804 0.714499 C.3 0 **** -0.106
1714 C 50.1868 83.4764 -0.617173 C.3 0 **** -0.053
1715 C 48.8998 82.6006 -0.703186 C.3 0 **** -0.053
1716 C 48.3504 82.1724 0.683218 C.3 0 **** -0.106
1717 C 49.5305 86.8204 4.07064 C.2 0 **** 0.042
1718 C 50.8488 87.1389 4.31878 C.2 0 **** 0.052
1719 C 51.884 86.357 3.82898 C.2 0 **** 0.052
1720 C 51.5987 85.2325 3.10075 C.2 0 **** 0.042
1721 C 53.3325 86.6745 4.09414 C.2 0 **** 0.367
1722 C 53.606 87.8896 4.91702 C.2 0 **** 0
1723 C 52.612 88.6403 5.4062 C.2 0 **** 0
1724 C 51.18 88.3476 5.1568 C.2 0 **** 0.367
1725 C 52.8978 89.8755 6.22933 C.3 0 **** -0.106
1726 C 54.1765 90.5601 5.68472 C.3 0 **** -0.106
1727 C 55.3356 89.5668 5.60003 C.2 0 **** 0
1728 C 55.0553 88.2391 5.20419 C.2 0 **** 0.2405
1729 N 56.0266 87.3098 5.07996 N.2 0 **** -0.481
1730 C 57.2868 87.6967 5.2498 C.2 0 **** 0.2405
1731 C 57.629 89.0014 5.67522 C.2 0 **** 0
1732 C 56.6341 89.9285 5.85916 C.2 0 **** 0
1733 C 56.947 91.3549 6.29404 C.3 0 **** -0.106
1734 C 58.3631 91.5069 6.86283 C.3 0 **** -0.106
1735 C 59.3747 90.7902 5.97465 C.3 0 **** -0.106
1736 C 59.0819 89.2777 5.97212 C.3 0 **** -0.053
1737 C 59.9808 88.5297 4.95231 C.3 0 **** -0.106
1738 C 59.5983 87.0742 4.9072 C.2 0 **** 0
1739 C 58.2619 86.6905 5.03351 C.2 0 **** 0
1740 C 57.9241 85.3284 4.94101 C.2 0 **** -0.1268
1741 C 58.9125 84.3942 4.69845 C.2 0 **** -0.1268
1742 C 60.2333 84.771 4.52976 C.2 0 **** 0
1743 C 60.5699 86.1216 4.61763 C.2 0 **** 0
1744 C 42.8655 92.3402 5.15958 C.3 0 **** -0.106
1745 C 43.0979 93.1598 3.87269 C.3 0 **** -0.159
1746 C 40.1437 91.3752 4.87539 C.3 0 **** -0.159
1747 C 45.0985 90.4672 4.68877 C.3 0 **** -0.159
1748 C 39.6395 88.5541 4.54499 C.3 0 **** -0.159
1749 C 41.352 83.9925 3.352 C.3 0 **** -0.159
1750 C 43.458 82.3723 2.27607 C.3 0 **** -0.159
1751 O 46.1108 82.0285 2.48277 O.3 0 **** -0.452
1752 C 49.092 81.2967 -1.4804 C.3 0 **** -0.159
1753 C 51.1914 83.2132 -1.74545 C.3 0 **** -0.159
1754 O 52.5612 84.3535 2.6828 O.3 0 **** -0.452
1755 O 48.5584 87.5802 4.63466 O.3 0 **** -0.452
1756 O 50.3249 89.0387 5.60846 O.2 0 **** -0.419
1757 O 54.2055 86.0033 3.62596 O.2 0 **** -0.419
1758 C 62.0109 86.5462 4.38948 C.3 0 **** -0.159
1759 C 61.2562 83.6922 4.23509 C.3 0 **** -0.159
1760 H 45.2109 88.1988 3.39901 H 0 **** 0.053
1761 H 45.187 87.7279 5.125 H 0 **** 0.053
1762 H 41.3976 86.2914 5.08462 H 0 **** 0.053
1763 H 41.0696 86.6221 3.36153 H 0 **** 0.053
1764 H 46.7687 86.9355 3.91202 H 0 **** 0.1268
1765 H 51.8455 83.8557 0.689183 H 0 **** 0.053
1766 H 51.1725 82.2278 0.857599 H 0 **** 0.053
1767 H 49.8821 84.5365 -0.680978 H 0 **** 0.053
1768 H 48.131 83.1986 -1.21031 H 0 **** 0.053
1769 H 48.8429 81.2455 0.990627 H 0 **** 0.053
1770 H 47.2811 81.9552 0.572936 H 0 **** 0.053
1771 H 52.064 90.6009 6.21334 H 0 **** 0.053
1772 H 53.0359 89.5733 7.282 H 0 **** 0.053
1773 H 54.3871 91.426 6.33576 H 0 **** 0.053
1774 H 53.9534 90.984 4.68239 H 0 **** 0.053
1775 H 56.8363 92.034 5.4268 H 0 **** 0.053
1776 H 56.237 91.7084 7.06338 H 0 **** 0.053
1777 H 58.4065 91.0718 7.87931 H 0 **** 0.053
1778 H 58.624 92.5762 6.97042 H 0 **** 0.053
1779 H 60.4108 90.9714 6.31888 H 0 **** 0.053
1780 H 59.3086 91.1818 4.94325 H 0 **** 0.053
1781 H 59.3216 88.8883 6.99175 H 0 **** 0.053
1782 H 59.8502 88.9909 3.94689 H 0 **** 0.053
1783 H 61.043 88.6939 5.23608 H 0 **** 0.053
1784 H 56.8838 84.9981 5.05204 H 0 **** 0.1268
1785 H 58.6404 83.329 4.62292 H 0 **** 0.1268
1786 H 43.7345 92.4687 5.83404 H 0 **** 0.053
1787 H 42.0365 92.7987 5.72745 H 0 **** 0.053
1788 H 42.2271 93.0961 3.1994 H 0 **** 0.053
1789 H 43.9801 92.7985 3.3194 H 0 **** 0.053
1790 H 43.2653 94.2326 4.09564 H 0 **** 0.053
1791 H 39.2536 91.0434 4.30601 H 0 **** 0.053
1792 H 40.3691 92.3794 4.46883 H 0 **** 0.053
1793 H 39.8245 91.5131 5.93196 H 0 **** 0.053
1794 H 45.6022 90.2942 3.71121 H 0 **** 0.053
1795 H 45.685 89.9197 5.45769 H 0 **** 0.053
1796 H 45.2491 91.5354 4.90402 H 0 **** 0.053
1797 H 39.5548 87.4867 4.82635 H 0 **** 0.053
1798 H 39.1789 88.6576 3.53751 H 0 **** 0.053
1799 H 38.9866 89.085 5.26376 H 0 **** 0.053
1800 H 41.2852 82.912 3.56976 H 0 **** 0.053
1801 H 40.8361 84.175 2.38152 H 0 **** 0.053
1802 H 40.7267 84.4668 4.14241 H 0 **** 0.053
1803 H 44.0528 82.1534 1.36159 H 0 **** 0.053
1804 H 42.3995 82.3045 1.90418 H 0 **** 0.053
1805 H 43.5961 81.5079 2.97652 H 0 **** 0.053
1806 H 46.978 81.6168 2.51978 H 0 **** 0.41
1807 H 49.3407 81.484 -2.53355 H 0 **** 0.053
1808 H 48.1627 80.6962 -1.46404 H 0 **** 0.053
1809 H 49.8926 80.6753 -1.03283 H 0 **** 0.053
1810 H 52.0459 83.9126 -1.6783 H 0 **** 0.053
1811 H 50.7289 83.3508 -2.73432 H 0 **** 0.053
1812 H 51.6078 82.1877 -1.68897 H 0 **** 0.053
1813 H 53.4287 84.7416 2.87282 H 0 **** 0.41
1814 H 48.954 88.318 5.12268 H 0 **** 0.41
1815 H 62.079 87.372 3.65683 H 0 **** 0.053
1816 H 62.6524 85.7398 3.98556 H 0 **** 0.053
1817 H 62.4925 86.8873 5.3293 H 0 **** 0.053
1818 H 61.7223 83.8269 3.24184 H 0 **** 0.053
1819 H 60.8083 82.6829 4.23493 H 0 **** 0.053
1820 H 62.0655 83.6764 4.98603 H 0 **** 0.053
1821 C 9.05184 45.1166 59.2675 C.2 0 **** 0
1822 C 8.49992 45.3289 58.0138 C.2 0 **** 0
1823 C 7.92495 46.5521 57.7084 C.2 0 **** 0
1824 C 7.92384 47.5475 58.6539 C.2 0 **** 0
1825 C 8.52465 47.36 59.8929 C.2 0 **** 0
1826 C 9.09874 46.1424 60.1945 C.2 0 **** 0
1827 C 7.28249 48.8882 58.3575 C.3 0 **** -0.106
1828 C 6.49644 49.0526 57.0638 C.2 0 **** 0
1829 C 6.49168 48.0657 56.1179 C.2 0 **** 0
1830 C 7.29765 46.7871 56.3369 C.3 0 **** -0.106
1831 C 5.73884 48.2328 54.9512 C.2 0 **** 0
1832 C 4.93964 49.344 54.7684 C.2 0 **** 0
1833 C 5.02422 50.3902 55.6799 C.2 0 **** 0
1834 C 5.78746 50.2464 56.8449 C.2 0 **** 0
1835 C 5.82653 51.2673 57.7825 C.2 0 **** -0.1268
1836 C 5.04693 52.4041 57.7278 C.2 0 **** 0
1837 C 4.16393 52.4494 56.5914 C.2 0 **** 0
1838 C 4.33569 51.5871 55.5056 C.2 0 **** 0.042
1839 C 3.17116 53.6197 56.4455 C.3 0 **** 0
1840 C 3.19288 54.7282 57.501 C.3 0 **** 0
1841 C 4.32478 54.6988 58.5476 C.2 0 **** 0
1842 C 5.18249 53.5559 58.662 C.2 0 **** 0
1843 C 1.81865 55.3746 57.7763 C.3 0 **** -0.106
1844 C 0.715957 54.3251 57.9476 C.3 0 **** -0.053
1845 C 0.54315 53.4544 56.6658 C.3 0 **** -0.053
1846 C 1.79794 53.4434 55.7538 C.3 0 **** -0.106
1847 C 6.23397 53.6641 59.5943 C.2 0 **** 0.042
1848 C 6.38876 54.8005 60.3597 C.2 0 **** 0.052
1849 C 5.55427 55.8965 60.2 C.2 0 **** 0.052
1850 C 4.56725 55.8651 59.2508 C.2 0 **** 0.042
1851 C 5.70787 57.1546 61.0138 C.2 0 **** 0.367
1852 C 6.81265 57.1658 62.0174 C.2 0 **** 0
1853 C 7.63171 56.1178 62.1666 C.2 0 **** 0
1854 C 7.49864 54.8694 61.3778 C.2 0 **** 0.367
1855 C 8.74111 56.1327 63.193 C.3 0 **** -0.106
1856 C 8.26159 56.9127 64.4429 C.3 0 **** -0.106
1857 C 7.73031 58.2933 64.0564 C.2 0 **** 0
1858 C 6.99624 58.4187 62.855 C.2 0 **** 0.2405
1859 N 6.47169 59.5974 62.4568 N.2 0 **** -0.481
1860 C 6.58054 60.6379 63.2768 C.2 0 **** 0.2405
1861 C 7.32746 60.5837 64.4767 C.2 0 **** 0
1862 C 7.9109 59.3989 64.8496 C.2 0 **** 0
1863 C 8.70708 59.2772 66.1429 C.3 0 **** -0.106
1864 C 9.10189 60.6382 66.7296 C.3 0 **** -0.106
1865 C 7.91392 61.5943 66.7064 C.3 0 **** -0.106
1866 C 7.49773 61.8685 65.2487 C.3 0 **** -0.053
1867 C 6.19102 62.7024 65.1811 C.3 0 **** -0.106
1868 C 5.76366 62.8651 63.7467 C.2 0 **** 0
1869 C 5.94567 61.8254 62.8329 C.2 0 **** 0
1870 C 5.49551 61.9839 61.5099 C.2 0 **** -0.1268
1871 C 4.85547 63.1513 61.1409 C.2 0 **** -0.1268
1872 C 4.63352 64.1692 62.0518 C.2 0 **** 0
1873 C 5.07602 64.0127 63.365 C.2 0 **** 0
1874 C 9.79953 45.9388 61.5133 C.3 0 **** -0.106
1875 C 8.79799 45.5479 62.6205 C.3 0 **** -0.159
1876 C 9.60365 43.7572 59.6101 C.3 0 **** -0.159
1877 C 8.49781 48.5102 60.8729 C.3 0 **** -0.159
1878 C 8.51501 44.2289 56.9807 C.3 0 **** -0.159
1879 C 5.7943 47.1155 53.909 C.3 0 **** -0.159
1880 C 4.01154 49.3352 53.5766 C.3 0 **** -0.159
1881 O 3.74765 51.9005 54.3127 O.3 0 **** -0.452
1882 C -0.606649 53.9065 55.7632 C.3 0 **** -0.159
1883 C -0.562057 55.0556 58.3766 C.3 0 **** -0.159
1884 O 3.78092 56.9471 58.9599 O.3 0 **** -0.452
1885 O 7.12369 52.6509 59.7433 O.3 0 **** -0.452
1886 O 8.24584 53.9591 61.5383 O.2 0 **** -0.419
1887 O 4.94876 58.0705 60.8806 O.2 0 **** -0.419
1888 C 4.79628 65.1079 64.3805 C.3 0 **** -0.159
1889 C 3.89652 65.407 61.5807 C.3 0 **** -0.159
1890 H 6.5856 49.1114 59.1984 H 0 **** 0.053
1891 H 8.07857 49.672 58.3875 H 0 **** 0.053
1892 H 8.11405 46.7525 55.5757 H 0 **** 0.053
1893 H 6.62889 45.9254 56.1185 H 0 **** 0.053
1894 H 6.485 51.0914 58.6031 H 0 **** 0.1268
1895 H 1.84377 56.0009 58.6699 H 0 **** 0.053
1896 H 1.6055 56.0137 56.9165 H 0 **** 0.053
1897 H 1.01353 53.6567 58.7755 H 0 **** 0.053
1898 H 0.34529 52.4254 56.9938 H 0 **** 0.053
1899 H 1.74625 54.2923 55.066 H 0 **** 0.053
1900 H 1.77038 52.529 55.1488 H 0 **** 0.053
1901 H 9.05383 55.1174 63.4982 H 0 **** 0.053
1902 H 9.6274 56.6173 62.7479 H 0 **** 0.053
1903 H 9.10803 56.9504 65.1502 H 0 **** 0.053
1904 H 7.47114 56.3197 64.9505 H 0 **** 0.053
1905 H 8.10593 58.7269 66.8922 H 0 **** 0.053
1906 H 9.63435 58.6946 65.9946 H 0 **** 0.053
1907 H 9.92685 61.0758 66.136 H 0 **** 0.053
1908 H 9.48934 60.5179 67.7586 H 0 **** 0.053
1909 H 8.15622 62.5475 67.2137 H 0 **** 0.053
1910 H 7.06558 61.1474 67.256 H 0 **** 0.053
1911 H 8.31308 62.4679 64.7748 H 0 **** 0.053
1912 H 5.39646 62.1789 65.76 H 0 **** 0.053
1913 H 6.36741 63.671 65.6974 H 0 **** 0.053
1914 H 5.63952 61.1887 60.7678 H 0 **** 0.1268
1915 H 4.50139 63.2668 60.1038 H 0 **** 0.1268
1916 H 10.3598 46.8393 61.8321 H 0 **** 0.053
1917 H 10.5832 45.1628 61.4539 H 0 **** 0.053
1918 H 8.25844 44.6227 62.3587 H 0 **** 0.053
1919 H 8.05002 46.3407 62.7848 H 0 **** 0.053
1920 H 9.30735 45.3701 63.5888 H 0 **** 0.053
1921 H 9.08441 42.9351 59.0796 H 0 **** 0.053
1922 H 9.48976 43.5051 60.6816 H 0 **** 0.053
1923 H 10.6856 43.6725 59.3665 H 0 **** 0.053
1924 H 7.45539 48.7924 61.1434 H 0 **** 0.053
1925 H 8.9825 49.4197 60.457 H 0 **** 0.053
1926 H 9.00059 48.317 61.8321 H 0 **** 0.053
1927 H 8.47233 44.6 55.9384 H 0 **** 0.053
1928 H 7.65529 43.5344 57.1086 H 0 **** 0.053
1929 H 9.43942 43.6219 57.0235 H 0 **** 0.053
1930 H 5.68552 47.4928 52.8769 H 0 **** 0.053
1931 H 5.00012 46.352 54.0752 H 0 **** 0.053
1932 H 6.76598 46.571 53.8968 H 0 **** 0.053
1933 H 3.00265 49.7309 53.8287 H 0 **** 0.053
1934 H 3.78085 48.3146 53.1661 H 0 **** 0.053
1935 H 4.39662 49.936 52.7119 H 0 **** 0.053
1936 H 3.55523 52.8415 54.287 H 0 **** 0.41
1937 H -1.57881 53.8119 56.265 H 0 **** 0.053
1938 H -0.647204 53.2854 54.8481 H 0 **** 0.053
1939 H -0.475628 54.9581 55.4404 H 0 **** 0.053
1940 H -0.40256 55.594 59.3297 H 0 **** 0.053
1941 H -1.39386 54.3519 58.5296 H 0 **** 0.053
1942 H -0.870528 55.8108 57.6264 H 0 **** 0.053
1943 H 3.96354 57.6382 59.6142 H 0 **** 0.41
1944 H 7.75176 52.8616 60.4507 H 0 **** 0.41
1945 H 4.34216 64.6991 65.3025 H 0 **** 0.053
1946 H 4.08816 65.8778 64.019 H 0 **** 0.053
1947 H 5.72257 65.6462 64.6698 H 0 **** 0.053
1948 H 2.93645 65.5415 62.1117 H 0 **** 0.053
1949 H 3.65387 65.3622 60.5044 H 0 **** 0.053
1950 H 4.49401 66.3233 61.73 H 0 **** 0.053
1951 C 13.3531 61.3666 72.5234 C.2 0 **** 0
1952 C 13.5379 59.9929 72.543 C.2 0 **** 0
1953 C 14.1212 59.3569 71.4586 C.2 0 **** 0
1954 C 14.5238 60.104 70.3794 C.2 0 **** 0
1955 C 14.392 61.4874 70.3763 C.2 0 **** 0
1956 C 13.8133 62.1192 71.4577 C.2 0 **** 0
1957 C 15.1444 59.4346 69.1695 C.3 0 **** -0.106
1958 C 15.1582 57.9136 69.1023 C.2 0 **** 0
1959 C 14.7578 57.1627 70.1721 C.2 0 **** 0
1960 C 14.3104 57.8423 71.4645 C.3 0 **** -0.106
1961 C 14.7553 55.7677 70.0727 C.2 0 **** 0
1962 C 15.0786 55.1345 68.8889 C.2 0 **** 0
1963 C 15.5821 55.8911 67.837 C.2 0 **** 0
1964 C 15.6084 57.288 67.9269 C.2 0 **** 0
1965 C 16.0572 58.0464 66.8564 C.2 0 **** -0.1268
1966 C 16.3709 57.5313 65.6158 C.2 0 **** 0
1967 C 16.1888 56.1069 65.5141 C.2 0 **** 0
1968 C 16.0327 55.3137 66.6535 C.2 0 **** 0.042
1969 C 16.4172 55.405 64.1607 C.3 0 **** 0
1970 C 16.8785 56.2508 62.9715 C.3 0 **** 0
1971 C 17.2617 57.7188 63.2429 C.2 0 **** 0
1972 C 16.9764 58.3239 64.5111 C.2 0 **** 0
1973 C 16.3641 55.7609 61.6012 C.3 0 **** -0.106
1974 C 14.8675 55.4356 61.6343 C.3 0 **** -0.053
1975 C 14.5455 54.3025 62.6554 C.3 0 **** -0.053
1976 C 15.6273 54.1374 63.7551 C.3 0 **** -0.106
1977 C 17.4386 59.6438 64.6829 C.2 0 **** 0.042
1978 C 18.0958 60.3017 63.665 C.2 0 **** 0.052
1979 C 18.3815 59.6706 62.4628 C.2 0 **** 0.052
1980 C 18.0167 58.3637 62.2803 C.2 0 **** 0.042
1981 C 19.1073 60.3608 61.3371 C.2 0 **** 0.367
1982 C 19.4949 61.7819 61.574 C.2 0 **** 0
1983 C 19.2215 62.3929 62.7314 C.2 0 **** 0
1984 C 18.5267 61.7326 63.8565 C.2 0 **** 0.367
1985 C 19.573 63.8364 62.9426 C.3 0 **** -0.106
1986 C 19.4645 64.6236 61.6294 C.3 0 **** -0.106
1987 C 20.2372 63.9223 60.5065 C.2 0 **** 0
1988 C 20.2379 62.5094 60.467 C.2 0 **** 0.2405
1989 N 20.8584 61.8212 59.4836 N.2 0 **** -0.481
1990 C 21.4062 62.5118 58.4888 C.2 0 **** 0.2405
1991 C 21.4718 63.9247 58.4901 C.2 0 **** 0
1992 C 20.8925 64.6205 59.5211 C.2 0 **** 0
1993 C 20.9164 66.1438 59.5634 C.3 0 **** -0.106
1994 C 21.9373 66.7548 58.5952 C.3 0 **** -0.106
1995 C 21.8561 66.0731 57.2346 C.3 0 **** -0.106
1996 C 22.2388 64.5867 57.3733 C.3 0 **** -0.053
1997 C 22.0047 63.8195 56.0449 C.3 0 **** -0.106
1998 C 22.2951 62.3556 56.2449 C.2 0 **** 0
1999 C 21.9707 61.7292 57.4496 C.2 0 **** 0
2000 C 22.204 60.3498 57.5941 C.2 0 **** -0.1268
2001 C 22.7245 59.6297 56.5361 C.2 0 **** -0.1268
2002 C 23.0124 60.2357 55.326 C.2 0 **** 0
2003 C 22.7763 61.6025 55.1788 C.2 0 **** 0
2004 C 13.7097 63.6224 71.4928 C.3 0 **** -0.106
2005 C 12.4483 64.1104 70.7494 C.3 0 **** -0.159
2006 C 12.648 62.0329 73.6767 C.3 0 **** -0.159
2007 C 14.876 62.2405 69.1586 C.3 0 **** -0.159
2008 C 13.0985 59.1843 73.739 C.3 0 **** -0.159
2009 C 14.3321 54.9725 71.3079 C.3 0 **** -0.159
2010 C 14.8481 53.6434 68.8215 C.3 0 **** -0.159
2011 O 16.2454 53.9674 66.5554 O.3 0 **** -0.452
2012 C 14.4054 52.9188 62.0175 C.3 0 **** -0.159
2013 C 14.4256 55.1203 60.2004 C.3 0 **** -0.159
2014 O 18.3566 57.6472 61.165 O.3 0 **** -0.452
2015 O 17.2486 60.2889 65.8614 O.3 0 **** -0.452
2016 O 18.3204 62.3061 64.8788 O.2 0 **** -0.419
2017 O 19.3076 59.8018 60.297 O.2 0 **** -0.419
2018 C 23.044 62.2649 53.8371 C.3 0 **** -0.159
2019 C 23.5514 59.3752 54.2011 C.3 0 **** -0.159
2020 H 14.592 59.8002 68.273 H 0 **** 0.053
2021 H 16.1954 59.8007 69.0667 H 0 **** 0.053
2022 H 15.0472 57.5918 72.2655 H 0 **** 0.053
2023 H 13.3455 57.3818 71.7714 H 0 **** 0.053
2024 H 16.102 59.0956 67.0434 H 0 **** 0.1268
2025 H 16.5411 56.5023 60.8197 H 0 **** 0.053
2026 H 16.9432 54.8663 61.3611 H 0 **** 0.053
2027 H 14.3325 56.3467 61.957 H 0 **** 0.053
2028 H 13.5952 54.5604 63.1411 H 0 **** 0.053
2029 H 16.4032 53.4571 63.3927 H 0 **** 0.053
2030 H 15.1573 53.6647 64.626 H 0 **** 0.053
2031 H 19.0031 64.3251 63.7436 H 0 **** 0.053
2032 H 20.6165 63.8574 63.246 H 0 **** 0.053
2033 H 19.8395 65.6433 61.837 H 0 **** 0.053
2034 H 18.3943 64.732 61.3663 H 0 **** 0.053
2035 H 19.9104 66.5307 59.3095 H 0 **** 0.053
2036 H 21.1472 66.5156 60.5783 H 0 **** 0.053
2037 H 22.9603 66.6303 58.9918 H 0 **** 0.053
2038 H 21.7763 67.8441 58.5012 H 0 **** 0.053
2039 H 22.5211 66.565 56.4992 H 0 **** 0.053
2040 H 20.8274 66.156 56.8387 H 0 **** 0.053
2041 H 23.3297 64.5392 57.6076 H 0 **** 0.053
2042 H 20.9471 63.9616 55.7246 H 0 **** 0.053
2043 H 22.6344 64.2863 55.2565 H 0 **** 0.053
2044 H 21.9663 59.8383 58.5355 H 0 **** 0.1268
2045 H 22.8868 58.5466 56.6525 H 0 **** 0.1268
2046 H 14.6015 64.1128 71.0558 H 0 **** 0.053
2047 H 13.6876 64.0148 72.5251 H 0 **** 0.053
2048 H 11.5354 63.6811 71.194 H 0 **** 0.053
2049 H 12.473 63.825 69.685 H 0 **** 0.053
2050 H 12.3495 65.2134 70.7926 H 0 **** 0.053
2051 H 11.904 61.3741 74.1658 H 0 **** 0.053
2052 H 12.0648 62.9212 73.368 H 0 **** 0.053
2053 H 13.3588 62.3652 74.4653 H 0 **** 0.053
2054 H 14.3207 61.937 68.2426 H 0 **** 0.053
2055 H 15.954 62.0572 68.9601 H 0 **** 0.053
2056 H 14.765 63.3336 69.2124 H 0 **** 0.053
2057 H 13.6558 58.2353 73.8607 H 0 **** 0.053
2058 H 12.0202 58.9169 73.6796 H 0 **** 0.053
2059 H 13.2531 59.7233 74.6933 H 0 **** 0.053
2060 H 14.848 53.9989 71.3827 H 0 **** 0.053
2061 H 13.2356 54.7756 71.3206 H 0 **** 0.053
2062 H 14.5779 55.4828 72.2671 H 0 **** 0.053
2063 H 14.3995 53.3329 67.8518 H 0 **** 0.053
2064 H 14.1124 53.2457 69.5726 H 0 **** 0.053
2065 H 15.7855 53.0442 68.9603 H 0 **** 0.053
2066 H 16.7938 53.786 65.7874 H 0 **** 0.41
2067 H 13.559 52.8767 61.3192 H 0 **** 0.053
2068 H 14.2291 52.1507 62.7944 H 0 **** 0.053
2069 H 15.3271 52.6306 61.4744 H 0 **** 0.053
2070 H 14.6087 55.9859 59.5363 H 0 **** 0.053
2071 H 13.3509 54.889 60.1535 H 0 **** 0.053
2072 H 14.9905 54.2649 59.7791 H 0 **** 0.053
2073 H 18.7594 58.2565 60.5276 H 0 **** 0.41
2074 H 17.5826 61.1968 65.7987 H 0 **** 0.41
2075 H 22.1781 62.8656 53.4999 H 0 **** 0.053
2076 H 23.2408 61.5469 53.018 H 0 **** 0.053
2077 H 23.9252 62.9383 53.8808 H 0 **** 0.053
2078 H 22.8623 59.3505 53.3366 H 0 **** 0.053
2079 H 23.6972 58.3255 54.5111 H 0 **** 0.053
2080 H 24.5298 59.7359 53.8375 H 0 **** 0.053
2081 C 47.1099 0.343801 40.2913 C.2 0 **** 0
2082 C 47.9398 1.12956 39.5065 C.2 0 **** 0
2083 C 48.0481 2.48788 39.7582 C.2 0 **** 0
2084 C 47.3378 3.03598 40.7976 C.2 0 **** 0
2085 C 46.548 2.24431 41.6232 C.2 0 **** 0
2086 C 46.4433 0.891714 41.3729 C.2 0 **** 0
2087 C 47.4173 4.52226 41.0825 C.3 0 **** -0.106
2088 C 48.1613 5.4167 40.0998 C.2 0 **** 0
2089 C 48.8703 4.87844 39.062 C.2 0 **** 0
2090 C 48.9447 3.36321 38.8862 C.3 0 **** -0.106
2091 C 49.5213 5.725 38.1588 C.2 0 **** 0
2092 C 49.3991 7.09745 38.251 C.2 0 **** 0
2093 C 48.7664 7.644 39.3617 C.2 0 **** 0
2094 C 48.1251 6.8096 40.2854 C.2 0 **** 0
2095 C 47.4438 7.35632 41.3624 C.2 0 **** -0.1268
2096 C 47.2249 8.7067 41.5407 C.2 0 **** 0
2097 C 47.7718 9.52747 40.4917 C.2 0 **** 0
2098 C 48.7015 9.01686 39.582 C.2 0 **** 0.042
2099 C 47.5293 11.0499 40.5125 C.3 0 **** 0
2100 C 46.7479 11.6466 41.6859 C.3 0 **** 0
2101 C 46.4032 10.7145 42.8649 C.2 0 **** 0
2102 C 46.6086 9.29954 42.7599 C.2 0 **** 0
2103 C 45.8981 12.8833 41.3242 C.3 0 **** -0.106
2104 C 45.0927 12.6689 40.0388 C.3 0 **** -0.053
2105 C 46.0198 12.3993 38.8147 C.3 0 **** -0.053
2106 C 47.4266 11.8781 39.2091 C.3 0 **** -0.106
2107 C 46.3372 8.54871 43.9214 C.2 0 **** 0.042
2108 C 45.8739 9.15865 45.0678 C.2 0 **** 0.052
2109 C 45.7137 10.5346 45.1383 C.2 0 **** 0.052
2110 C 46.0405 11.3118 44.0588 C.2 0 **** 0.042
2111 C 45.2206 11.2292 46.3808 C.2 0 **** 0.367
2112 C 44.9043 10.3542 47.5481 C.2 0 **** 0
2113 C 45.0712 9.02725 47.4929 C.2 0 **** 0
2114 C 45.5536 8.32321 46.2809 C.2 0 **** 0.367
2115 C 44.738 8.1478 48.6761 C.3 0 **** -0.106
2116 C 43.5055 8.73473 49.4088 C.3 0 **** -0.106
2117 C 43.7209 10.2096 49.7496 C.2 0 **** 0
2118 C 44.4058 11.0216 48.8174 C.2 0 **** 0.2405
2119 N 44.6156 12.3375 49.0333 N.2 0 **** -0.481
2120 C 44.0713 12.8878 50.1139 C.2 0 **** 0.2405
2121 C 43.4017 12.124 51.0982 C.2 0 **** 0
2122 C 43.244 10.7744 50.9061 C.2 0 **** 0
2123 C 42.5115 9.90699 51.9223 C.3 0 **** -0.106
2124 C 42.3462 10.5945 53.2832 C.3 0 **** -0.106
2125 C 41.8785 12.0345 53.1001 C.3 0 **** -0.106
2126 C 42.9577 12.8385 52.3503 C.3 0 **** -0.053
2127 C 42.4564 14.2633 51.9951 C.3 0 **** -0.106
2128 C 43.4982 14.9818 51.1795 C.2 0 **** 0
2129 C 44.2659 14.2861 50.2435 C.2 0 **** 0
2130 C 45.201 14.9875 49.4615 C.2 0 **** -0.1268
2131 C 45.3259 16.3555 49.6087 C.2 0 **** -0.1268
2132 C 44.5384 17.0583 50.5037 C.2 0 **** 0
2133 C 43.6084 16.3652 51.2783 C.2 0 **** 0
2134 C 45.6316 0.0105383 42.2882 C.3 0 **** -0.106
2135 C 44.1392 0.0253107 41.8943 C.3 0 **** -0.159
2136 C 46.9432 -1.11557 39.956 C.3 0 **** -0.159
2137 C 45.8115 2.91933 42.7576 C.3 0 **** -0.159
2138 C 48.7213 0.513326 38.3716 C.3 0 **** -0.159
2139 C 50.3283 5.07315 37.0352 C.3 0 **** -0.159
2140 C 49.9637 7.91631 37.115 C.3 0 **** -0.159
2141 O 49.47 9.88891 38.8635 O.3 0 **** -0.452
2142 C 46.2761 13.6357 37.9507 C.3 0 **** -0.159
2143 C 44.1671 13.8781 39.8598 C.3 0 **** -0.159
2144 O 46.0181 12.6798 44.0937 O.3 0 **** -0.452
2145 O 46.5427 7.20759 43.9335 O.3 0 **** -0.452
2146 O 45.6897 7.14143 46.2711 O.2 0 **** -0.419
2147 O 45.0568 12.4138 46.4002 O.2 0 **** -0.419
2148 C 42.711 17.1368 52.2316 C.3 0 **** -0.159
2149 C 44.7112 18.5619 50.5865 C.3 0 **** -0.159
2150 H 46.3707 4.90044 41.1467 H 0 **** 0.053
2151 H 47.8686 4.66113 42.0953 H 0 **** 0.053
2152 H 50.0018 3.04275 39.0501 H 0 **** 0.053
2153 H 48.7094 3.13565 37.823 H 0 **** 0.053
2154 H 47.0437 6.64024 42.0444 H 0 **** 0.1268
2155 H 45.2066 13.1418 42.1282 H 0 **** 0.053
2156 H 46.6015 13.7097 41.1991 H 0 **** 0.053
2157 H 44.4555 11.7784 40.1859 H 0 **** 0.053
2158 H 45.5298 11.6364 38.1954 H 0 **** 0.053
2159 H 48.0841 12.7321 39.3952 H 0 **** 0.053
2160 H 47.8374 11.3282 38.3537 H 0 **** 0.053
2161 H 44.523 7.10366 48.384 H 0 **** 0.053
2162 H 45.6128 8.11542 49.3487 H 0 **** 0.053
2163 H 43.3192 8.10262 50.294 H 0 **** 0.053
2164 H 42.6134 8.61298 48.758 H 0 **** 0.053
2165 H 41.5092 9.65082 51.5281 H 0 **** 0.053
2166 H 43.0376 8.95019 52.0919 H 0 **** 0.053
2167 H 43.3134 10.5969 53.8208 H 0 **** 0.053
2168 H 41.6386 10.0298 53.9183 H 0 **** 0.053
2169 H 41.6628 12.5135 54.0741 H 0 **** 0.053
2170 H 40.9371 12.05 52.521 H 0 **** 0.053
2171 H 43.8343 12.943 53.0355 H 0 **** 0.053
2172 H 41.5082 14.1804 51.4164 H 0 **** 0.053
2173 H 42.202 14.79 52.9404 H 0 **** 0.053
2174 H 45.8279 14.463 48.7295 H 0 **** 0.1268
2175 H 46.0577 16.8991 48.9894 H 0 **** 0.1268
2176 H 45.7301 0.307586 43.3507 H 0 **** 0.053
2177 H 45.9883 -1.03476 42.2857 H 0 **** 0.053
2178 H 43.9996 -0.31694 40.8554 H 0 **** 0.053
2179 H 43.7108 1.03763 41.9767 H 0 **** 0.053
2180 H 43.5379 -0.641012 42.5448 H 0 **** 0.053
2181 H 47.0557 -1.32482 38.8741 H 0 **** 0.053
2182 H 45.9361 -1.50082 40.2051 H 0 **** 0.053
2183 H 47.68 -1.75342 40.492 H 0 **** 0.053
2184 H 45.0916 3.68053 42.3811 H 0 **** 0.053
2185 H 46.5066 3.443 43.4488 H 0 **** 0.053
2186 H 45.2136 2.24687 43.3905 H 0 **** 0.053
2187 H 49.6381 1.07569 38.1084 H 0 **** 0.053
2188 H 48.1111 0.444034 37.4437 H 0 **** 0.053
2189 H 49.078 -0.506878 38.6095 H 0 **** 0.053
2190 H 51.2001 5.67899 36.7352 H 0 **** 0.053
2191 H 49.7092 4.90254 36.1251 H 0 **** 0.053
2192 H 50.7639 4.08779 37.3178 H 0 **** 0.053
2193 H 49.2879 8.74981 36.8221 H 0 **** 0.053
2194 H 50.1005 7.35677 36.1499 H 0 **** 0.053
2195 H 50.96 8.36873 37.3534 H 0 **** 0.053
2196 H 49.501 10.736 39.3154 H 0 **** 0.41
2197 H 45.3516 14.0082 37.4896 H 0 **** 0.053
2198 H 46.9789 13.3953 37.1305 H 0 **** 0.053
2199 H 46.7307 14.4538 38.5434 H 0 **** 0.053
2200 H 43.4815 13.9758 40.7225 H 0 **** 0.053
2201 H 43.5482 13.7789 38.9555 H 0 **** 0.053
2202 H 44.741 14.8239 39.7942 H 0 **** 0.053
2203 H 45.6123 12.9556 44.9296 H 0 **** 0.41
2204 H 46.2657 6.837 44.7846 H 0 **** 0.41
2205 H 41.6478 16.8634 52.0972 H 0 **** 0.053
2206 H 42.7538 18.2339 52.0917 H 0 **** 0.053
2207 H 42.9783 16.9467 53.2918 H 0 **** 0.053
2208 H 43.7921 19.099 50.2887 H 0 **** 0.053
2209 H 45.5144 18.9256 49.9217 H 0 **** 0.053
2210 H 44.976 18.8903 51.6068 H 0 **** 0.053
2211 C 41.7011 95.9882 19.5948 C.2 0 **** 0
2212 C 41.479 94.9308 20.4632 C.2 0 **** 0
2213 C 42.3639 93.865 20.497 C.2 0 **** 0
2214 C 43.4631 93.8793 19.6746 C.2 0 **** 0
2215 C 43.7213 94.9617 18.842 C.2 0 **** 0
2216 C 42.8408 96.0231 18.8114 C.2 0 **** 0
2217 C 44.4365 92.7178 19.6724 C.3 0 **** -0.106
2218 C 44.0857 91.4685 20.4688 C.2 0 **** 0
2219 C 42.9923 91.446 21.289 C.2 0 **** 0
2220 C 42.1158 92.6878 21.4363 C.3 0 **** -0.106
2221 C 42.679 90.2759 21.9879 C.2 0 **** 0
2222 C 43.4099 89.1182 21.8084 C.2 0 **** 0
2223 C 44.5777 89.1696 21.056 C.2 0 **** 0
2224 C 44.9156 90.3389 20.364 C.2 0 **** 0
2225 C 46.05 90.3734 19.5674 C.2 0 **** -0.1268
2226 C 46.8349 89.2751 19.283 C.2 0 **** 0
2227 C 46.3715 88.0559 19.8929 C.2 0 **** 0
2228 C 45.4253 88.074 20.9208 C.2 0 **** 0.042
2229 C 47.1001 86.7307 19.5934 C.3 0 **** 0
2230 C 48.3321 86.7666 18.6857 C.3 0 **** 0
2231 C 48.8751 88.1484 18.2697 C.2 0 **** 0
2232 C 48.1216 89.3384 18.5361 C.2 0 **** 0
2233 C 48.5301 85.4994 17.8271 C.3 0 **** -0.106
2234 C 47.2286 85.0562 17.1515 C.3 0 **** -0.053
2235 C 46.1242 84.7113 18.1963 C.3 0 **** -0.053
2236 C 46.3545 85.3746 19.5796 C.3 0 **** -0.106
2237 C 48.7437 90.554 18.1875 C.2 0 **** 0.042
2238 C 49.9907 90.569 17.5997 C.2 0 **** 0.052
2239 C 50.7002 89.3973 17.3834 C.2 0 **** 0.052
2240 C 50.1669 88.1989 17.7775 C.2 0 **** 0.042
2241 C 52.0685 89.3851 16.7538 C.2 0 **** 0.367
2242 C 52.6319 90.7113 16.3642 C.2 0 **** 0
2243 C 51.96 91.8476 16.5839 C.2 0 **** 0
2244 C 50.612 91.8832 17.2005 C.2 0 **** 0.367
2245 C 52.5327 93.1857 16.1758 C.3 0 **** -0.106
2246 C 53.3326 93.0123 14.8604 C.3 0 **** -0.106
2247 C 54.3621 91.8893 14.9894 C.2 0 **** 0
2248 C 54.0098 90.736 15.7268 C.2 0 **** 0.2405
2249 N 54.8525 89.6904 15.8645 N.2 0 **** -0.481
2250 C 56.0062 89.7263 15.2053 C.2 0 **** 0.2405
2251 C 56.4281 90.8626 14.4767 C.2 0 **** 0
2252 C 55.5942 91.9488 14.3873 C.2 0 **** 0
2253 C 55.9878 93.1904 13.5967 C.3 0 **** -0.106
2254 C 57.4877 93.2447 13.2812 C.3 0 **** -0.106
2255 C 57.9772 91.8904 12.7792 C.3 0 **** -0.106
2256 C 57.8187 90.8373 13.8923 C.3 0 **** -0.053
2257 C 58.1477 89.4124 13.3735 C.3 0 **** -0.106
2258 C 57.8868 88.4017 14.4584 C.2 0 **** 0
2259 C 56.8121 88.567 15.3343 C.2 0 **** 0
2260 C 56.5608 87.5854 16.3096 C.2 0 **** -0.1268
2261 C 57.3606 86.4605 16.369 C.2 0 **** -0.1268
2262 C 58.4013 86.269 15.4772 C.2 0 **** 0
2263 C 58.6503 87.2395 14.5071 C.2 0 **** 0
2264 C 43.1322 97.2273 17.9531 C.3 0 **** -0.106
2265 C 42.6501 97.0068 16.5037 C.3 0 **** -0.159
2266 C 40.6897 97.102 19.5147 C.3 0 **** -0.159
2267 C 44.9619 94.9103 17.9803 C.3 0 **** -0.159
2268 C 40.2711 94.9312 21.3679 C.3 0 **** -0.159
2269 C 41.4665 90.3125 22.9185 C.3 0 **** -0.159
2270 C 42.8715 87.8593 22.446 C.3 0 **** -0.159
2271 O 45.2969 86.9735 21.7205 O.3 0 **** -0.452
2272 C 45.9936 83.2143 18.4844 C.3 0 **** -0.159
2273 C 47.5649 83.9004 16.2017 C.3 0 **** -0.159
2274 O 50.8542 87.0177 17.6994 O.3 0 **** -0.452
2275 O 48.1267 91.7357 18.4392 O.3 0 **** -0.452
2276 O 50.0459 92.9132 17.3784 O.2 0 **** -0.419
2277 O 52.6405 88.3554 16.5433 O.2 0 **** -0.419
2278 C 59.7635 87.0142 13.4974 C.3 0 **** -0.159
2279 C 59.2152 84.995 15.5851 C.3 0 **** -0.159
2280 H 44.5725 92.4059 18.6109 H 0 **** 0.053
2281 H 45.4293 93.0917 20.0239 H 0 **** 0.053
2282 H 42.2087 93.0601 22.485 H 0 **** 0.053
2283 H 41.0573 92.3704 21.3089 H 0 **** 0.053
2284 H 46.259 91.3253 19.1338 H 0 **** 0.1268
2285 H 49.2865 85.6538 17.0556 H 0 **** 0.053
2286 H 48.8889 84.7239 18.5076 H 0 **** 0.053
2287 H 46.8645 85.8992 16.5371 H 0 **** 0.053
2288 H 45.169 85.0737 17.7939 H 0 **** 0.053
2289 H 46.993 84.7247 20.1847 H 0 **** 0.053
2290 H 45.3852 85.4473 20.0873 H 0 **** 0.053
2291 H 51.7537 93.9555 16.0272 H 0 **** 0.053
2292 H 53.1886 93.5498 16.9857 H 0 **** 0.053
2293 H 53.7795 93.9917 14.6176 H 0 **** 0.053
2294 H 52.6196 92.7939 14.037 H 0 **** 0.053
2295 H 55.4222 93.2127 12.6454 H 0 **** 0.053
2296 H 55.726 94.1161 14.1404 H 0 **** 0.053
2297 H 58.052 93.514 14.1943 H 0 **** 0.053
2298 H 57.6987 94.0379 12.54 H 0 **** 0.053
2299 H 59.0349 91.94 12.4574 H 0 **** 0.053
2300 H 57.3887 91.5858 11.8947 H 0 **** 0.053
2301 H 58.5521 91.0877 14.6975 H 0 **** 0.053
2302 H 57.5113 89.1937 12.4859 H 0 **** 0.053
2303 H 59.1995 89.4055 13.0137 H 0 **** 0.053
2304 H 55.7324 87.6977 17.0203 H 0 **** 0.1268
2305 H 57.1551 85.6932 17.133 H 0 **** 0.1268
2306 H 44.21 97.4817 17.9425 H 0 **** 0.053
2307 H 42.6609 98.1448 18.3479 H 0 **** 0.053
2308 H 41.5671 96.8024 16.4727 H 0 **** 0.053
2309 H 43.1685 96.1559 16.0323 H 0 **** 0.053
2310 H 42.8361 97.8974 15.8706 H 0 **** 0.053
2311 H 39.6581 96.7637 19.7341 H 0 **** 0.053
2312 H 40.6215 97.5481 18.5043 H 0 **** 0.053
2313 H 40.9215 97.9277 20.2229 H 0 **** 0.053
2314 H 44.931 94.0535 17.2701 H 0 **** 0.053
2315 H 45.8842 94.7938 18.5893 H 0 **** 0.053
2316 H 45.1298 95.7976 17.352 H 0 **** 0.053
2317 H 40.4036 94.3225 22.2832 H 0 **** 0.053
2318 H 39.3698 94.5363 20.8487 H 0 **** 0.053
2319 H 40.0218 95.9435 21.7392 H 0 **** 0.053
2320 H 41.5846 89.651 23.7948 H 0 **** 0.053
2321 H 40.5302 90.0139 22.3936 H 0 **** 0.053
2322 H 41.2801 91.3173 23.3615 H 0 **** 0.053
2323 H 42.9536 86.98 21.7693 H 0 **** 0.053
2324 H 41.7737 87.8848 22.6857 H 0 **** 0.053
2325 H 43.3906 87.5911 23.4028 H 0 **** 0.053
2326 H 46.1003 86.4485 21.6731 H 0 **** 0.41
2327 H 45.681 82.6546 17.5928 H 0 **** 0.053
2328 H 45.2328 83.0362 19.2679 H 0 **** 0.053
2329 H 46.9489 82.7901 18.8517 H 0 **** 0.053
2330 H 48.2955 84.2238 15.4365 H 0 **** 0.053
2331 H 46.669 83.5427 15.6723 H 0 **** 0.053
2332 H 48.0203 83.0475 16.7433 H 0 **** 0.053
2333 H 51.6774 87.1777 17.2138 H 0 **** 0.41
2334 H 48.6636 92.469 18.1034 H 0 **** 0.41
2335 H 59.4104 87.1764 12.462 H 0 **** 0.053
2336 H 60.1733 85.9862 13.5115 H 0 **** 0.053
2337 H 60.6216 87.6955 13.6729 H 0 **** 0.053
2338 H 59.1251 84.3701 14.6777 H 0 **** 0.053
2339 H 58.8906 84.364 16.4311 H 0 **** 0.053
2340 H 60.2874 85.2047 15.7436 H 0 **** 0.053
2341 C 90.7504 58.8793 48.5098 C.2 0 **** 0
2342 C 91.7659 58.1803 47.8759 C.2 0 **** 0
2343 C 91.8934 56.8144 48.0724 C.2 0 **** 0
2344 C 90.9968 56.1667 48.8859 C.2 0 **** 0
2345 C 89.9436 56.8516 49.4799 C.2 0 **** 0
2346 C 89.8166 58.2109 49.2815 C.2 0 **** 0
2347 C 91.1239 54.6776 49.1381 C.3 0 **** -0.106
2348 C 92.3536 53.9495 48.6131 C.2 0 **** 0
2349 C 93.2515 54.5877 47.8035 C.2 0 **** 0
2350 C 93.0206 56.0407 47.3938 C.3 0 **** -0.106
2351 C 94.3861 53.9021 47.3578 C.2 0 **** 0
2352 C 94.6561 52.6154 47.78 C.2 0 **** 0
2353 C 93.6952 51.9338 48.5179 C.2 0 **** 0
2354 C 92.545 52.6002 48.9575 C.2 0 **** 0
2355 C 91.6132 51.9374 49.7418 C.2 0 **** -0.1268
2356 C 91.7894 50.669 50.2549 C.2 0 **** 0
2357 C 93.0511 50.0703 49.9047 C.2 0 **** 0
2358 C 93.846 50.5998 48.885 C.2 0 **** 0.042
2359 C 93.4233 48.6889 50.479 C.3 0 **** 0
2360 C 92.4062 47.9742 51.3723 C.3 0 **** 0
2361 C 91.002 48.5981 51.5002 C.2 0 **** 0
2362 C 90.7374 49.9099 50.9861 C.2 0 **** 0
2363 C 93.0322 47.0955 52.4759 C.3 0 **** -0.106
2364 C 94.1614 47.8212 53.2146 C.3 0 **** -0.053
2365 C 95.324 48.2121 52.2521 C.3 0 **** -0.053
2366 C 94.8919 48.2922 50.7642 C.3 0 **** -0.106
2367 C 89.403 50.3532 51.0828 C.2 0 **** 0.042
2368 C 88.435 49.5654 51.6686 C.2 0 **** 0.052
2369 C 88.7248 48.2899 52.1295 C.2 0 **** 0.052
2370 C 89.9911 47.7879 51.985 C.2 0 **** 0.042
2371 C 87.6845 47.4033 52.7623 C.2 0 **** 0.367
2372 C 86.3086 47.9705 52.876 C.2 0 **** 0
2373 C 86.0177 49.1945 52.4195 C.2 0 **** 0
2374 C 87.0253 50.0847 51.7945 C.2 0 **** 0.367
2375 C 84.6244 49.766 52.5485 C.3 0 **** -0.106
2376 C 84 49.2778 53.8797 C.3 0 **** -0.106
2377 C 84.0792 47.7553 53.9959 C.2 0 **** 0
2378 C 85.2349 47.1034 53.5088 C.2 0 **** 0.2405
2379 N 85.3924 45.7654 53.5978 N.2 0 **** -0.481
2380 C 84.4648 45.0692 54.2473 C.2 0 **** 0.2405
2381 C 83.2733 45.6585 54.7303 C.2 0 **** 0
2382 C 83.0883 47.0105 54.5853 C.2 0 **** 0
2383 C 81.8348 47.7017 55.107 C.3 0 **** -0.106
2384 C 80.6996 46.7191 55.4201 C.3 0 **** -0.106
2385 C 81.2315 45.5184 56.1955 C.3 0 **** -0.106
2386 C 82.2331 44.7399 55.3217 C.3 0 **** -0.053
2387 C 82.9244 43.6081 56.1267 C.3 0 **** -0.106
2388 C 83.9643 42.9359 55.2704 C.2 0 **** 0
2389 C 84.726 43.681 54.3683 C.2 0 **** 0
2390 C 85.7242 43.0388 53.614 C.2 0 **** -0.1268
2391 C 85.9563 41.6891 53.7961 C.2 0 **** -0.1268
2392 C 85.2344 40.9528 54.7188 C.2 0 **** 0
2393 C 84.2464 41.5884 55.4703 C.2 0 **** 0
2394 C 88.6513 58.9593 49.8761 C.3 0 **** -0.106
2395 C 88.9414 59.3717 51.3347 C.3 0 **** -0.159
2396 C 90.6721 60.3753 48.3474 C.3 0 **** -0.159
2397 C 88.9881 56.0642 50.3469 C.3 0 **** -0.159
2398 C 92.7398 58.9034 46.9776 C.3 0 **** -0.159
2399 C 95.3418 54.6487 46.4269 C.3 0 **** -0.159
2400 C 96.0021 52.0386 47.4102 C.3 0 **** -0.159
2401 O 94.8158 49.8151 48.3275 O.3 0 **** -0.452
2402 C 96.5014 47.2352 52.2779 C.3 0 **** -0.159
2403 C 94.5997 46.9341 54.3858 C.3 0 **** -0.159
2404 O 90.3218 46.5005 52.3117 O.3 0 **** -0.452
2405 O 89.046 51.5636 50.5848 O.3 0 **** -0.452
2406 O 86.7287 51.1662 51.4008 O.2 0 **** -0.419
2407 O 87.9726 46.3214 53.1856 O.2 0 **** -0.419
2408 C 83.4812 40.7958 56.5167 C.3 0 **** -0.159
2409 C 85.5681 39.4838 54.8852 C.3 0 **** -0.159
2410 H 91.098 54.5285 50.2425 H 0 **** 0.053
2411 H 90.2148 54.1735 48.7277 H 0 **** 0.053
2412 H 92.8419 56.07 46.2919 H 0 **** 0.053
2413 H 93.9677 56.596 47.5728 H 0 **** 0.053
2414 H 90.7413 52.5072 49.9721 H 0 **** 0.1268
2415 H 92.2855 46.7802 53.2069 H 0 **** 0.053
2416 H 93.4168 46.2049 51.9739 H 0 **** 0.053
2417 H 93.7428 48.7519 53.6381 H 0 **** 0.053
2418 H 95.6857 49.2017 52.5612 H 0 **** 0.053
2419 H 94.9817 47.2999 50.3131 H 0 **** 0.053
2420 H 95.5925 48.9548 50.2421 H 0 **** 0.053
2421 H 84.6129 50.871 52.5271 H 0 **** 0.053
2422 H 84.0226 49.4255 51.6881 H 0 **** 0.053
2423 H 82.9685 49.668 53.9202 H 0 **** 0.053
2424 H 84.5381 49.761 54.723 H 0 **** 0.053
2425 H 82.0834 48.2642 56.0275 H 0 **** 0.053
2426 H 81.4481 48.4403 54.3817 H 0 **** 0.053
2427 H 80.2426 46.3632 54.4772 H 0 **** 0.053
2428 H 79.8945 47.2254 55.9844 H 0 **** 0.053
2429 H 80.4092 44.8486 56.5117 H 0 **** 0.053
2430 H 81.7339 45.8634 57.1174 H 0 **** 0.053
2431 H 81.6556 44.267 54.4901 H 0 **** 0.053
2432 H 83.4002 44.0464 57.0334 H 0 **** 0.053
2433 H 82.1404 42.9095 56.4916 H 0 **** 0.053
2434 H 86.3269 43.5979 52.8874 H 0 **** 0.1268
2435 H 86.7431 41.1934 53.2051 H 0 **** 0.1268
2436 H 87.7155 58.3678 49.8456 H 0 **** 0.053
2437 H 88.3965 59.8638 49.2958 H 0 **** 0.053
2438 H 89.8401 60.0073 51.3961 H 0 **** 0.053
2439 H 89.1055 58.491 51.9771 H 0 **** 0.053
2440 H 88.1005 59.9461 51.7726 H 0 **** 0.053
2441 H 91.6632 60.8448 48.1918 H 0 **** 0.053
2442 H 90.2673 60.8832 49.2434 H 0 **** 0.053
2443 H 90.0317 60.6688 47.4865 H 0 **** 0.053
2444 H 89.5088 55.6068 51.2182 H 0 **** 0.053
2445 H 88.5068 55.2349 49.7849 H 0 **** 0.053
2446 H 88.1629 56.6483 50.7805 H 0 **** 0.053
2447 H 93.1995 58.2523 46.2093 H 0 **** 0.053
2448 H 93.5756 59.3534 47.558 H 0 **** 0.053
2449 H 92.2591 59.7182 46.4034 H 0 **** 0.053
2450 H 95.843 53.9777 45.7072 H 0 **** 0.053
2451 H 96.1344 55.1904 46.9921 H 0 **** 0.053
2452 H 94.833 55.4029 45.7841 H 0 **** 0.053
2453 H 96.464 51.4803 48.2545 H 0 **** 0.053
2454 H 96.7887 52.8011 47.1587 H 0 **** 0.053
2455 H 95.9585 51.3394 46.5348 H 0 **** 0.053
2456 H 94.6137 48.8904 48.4926 H 0 **** 0.41
2457 H 96.9875 47.2104 53.2624 H 0 **** 0.053
2458 H 97.2695 47.536 51.5403 H 0 **** 0.053
2459 H 96.1783 46.2084 52.0161 H 0 **** 0.053
2460 H 93.7541 46.7522 55.0754 H 0 **** 0.053
2461 H 95.4049 47.4074 54.9676 H 0 **** 0.053
2462 H 94.9511 45.9428 54.0364 H 0 **** 0.053
2463 H 89.5645 46.0995 52.764 H 0 **** 0.41
2464 H 88.111 51.7369 50.7713 H 0 **** 0.41
2465 H 83.4719 41.3163 57.4926 H 0 **** 0.053
2466 H 83.9121 39.7968 56.7194 H 0 **** 0.053
2467 H 82.4272 40.6262 56.2137 H 0 **** 0.053
2468 H 85.9414 39.2589 55.9011 H 0 **** 0.053
2469 H 86.3545 39.1538 54.1838 H 0 **** 0.053
2470 H 84.6911 38.8394 54.6996 H 0 **** 0.053
2471 C 78.0899 39.9045 50.5056 C.2 0 **** 0
2472 C 77.6734 39.4241 49.2738 C.2 0 **** 0
2473 C 78.5818 38.8086 48.4275 C.2 0 **** 0
2474 C 79.8867 38.6695 48.8311 C.2 0 **** 0
2475 C 80.2983 39.0989 50.0872 C.2 0 **** 0
2476 C 79.3924 39.7096 50.9295 C.2 0 **** 0
2477 C 80.9081 38.0212 47.9184 C.3 0 **** -0.106
2478 C 80.5024 37.6826 46.4904 C.2 0 **** 0
2479 C 79.2054 37.8195 46.0807 C.2 0 **** 0
2480 C 78.1354 38.2947 47.0612 C.3 0 **** -0.106
2481 C 78.8665 37.5267 44.7558 C.2 0 **** 0
2482 C 79.8305 37.1731 43.8325 C.2 0 **** 0
2483 C 81.1279 36.9357 44.2717 C.2 0 **** 0
2484 C 81.4798 37.2068 45.5994 C.2 0 **** 0
2485 C 82.7872 37.0247 46.0243 C.2 0 **** -0.1268
2486 C 83.84 36.7113 45.1899 C.2 0 **** 0
2487 C 83.4668 36.5859 43.8049 C.2 0 **** 0
2488 C 82.1279 36.47 43.423 C.2 0 **** 0.042
2489 C 84.5547 36.3236 42.7445 C.3 0 **** 0
2490 C 86.0024 36.157 43.2131 C.3 0 **** 0
2491 C 86.26 36.0847 44.7315 C.2 0 **** 0
2492 C 85.2145 36.3892 45.6638 C.2 0 **** 0
2493 C 87.0604 36.665 42.2107 C.3 0 **** -0.106
2494 C 86.7047 38.0469 41.6535 C.3 0 **** -0.053
2495 C 85.3469 38.0285 40.8877 C.3 0 **** -0.053
2496 C 84.4248 36.8493 41.2948 C.3 0 **** -0.106
2497 C 85.5318 36.2146 47.0258 C.2 0 **** 0.042
2498 C 86.7893 35.8034 47.4136 C.2 0 **** 0.052
2499 C 87.766 35.4918 46.4798 C.2 0 **** 0.052
2500 C 87.4769 35.572 45.1433 C.2 0 **** 0.042
2501 C 89.1438 35.0286 46.8747 C.2 0 **** 0.367
2502 C 89.4144 34.9233 48.3388 C.2 0 **** 0
2503 C 88.4722 35.2076 49.2458 C.2 0 **** 0
2504 C 87.1106 35.6661 48.8801 C.2 0 **** 0.367
2505 C 88.7579 35.109 50.7268 C.3 0 **** -0.106
2506 C 90.224 35.5367 50.9873 C.3 0 **** -0.106
2507 C 91.1893 34.7537 50.097 C.2 0 **** 0
2508 C 90.7933 34.4589 48.7726 C.2 0 **** 0.2405
2509 N 91.5983 33.7945 47.9164 N.2 0 **** -0.481
2510 C 92.83 33.4988 48.3192 C.2 0 **** 0.2405
2511 C 93.2747 33.74 49.64 C.2 0 **** 0
2512 C 92.4325 34.3617 50.5273 C.2 0 **** 0
2513 C 92.867 34.667 51.9553 C.3 0 **** -0.106
2514 C 94.1154 33.8831 52.3783 C.3 0 **** -0.106
2515 C 95.1736 33.9319 51.2813 C.3 0 **** -0.106
2516 C 94.6426 33.2286 50.0177 C.3 0 **** -0.053
2517 C 95.6185 33.3992 48.8237 C.3 0 **** -0.106
2518 C 95.0211 32.7856 47.5854 C.2 0 **** 0
2519 C 93.6477 32.8675 47.3483 C.2 0 **** 0
2520 C 93.1198 32.3278 46.1617 C.2 0 **** -0.1268
2521 C 93.9684 31.7515 45.2363 C.2 0 **** -0.1268
2522 C 95.3356 31.7045 45.4448 C.2 0 **** 0
2523 C 95.8616 32.2421 46.6192 C.2 0 **** 0
2524 C 79.8095 40.1346 52.3145 C.3 0 **** -0.106
2525 C 80.4705 41.5293 52.2944 C.3 0 **** -0.159
2526 C 77.108 40.6392 51.3808 C.3 0 **** -0.159
2527 C 81.7473 38.8936 50.4648 C.3 0 **** -0.159
2528 C 76.2342 39.576 48.8454 C.3 0 **** -0.159
2529 C 77.3971 37.6625 44.3562 C.3 0 **** -0.159
2530 C 79.3977 37.0785 42.3885 C.3 0 **** -0.159
2531 O 81.8345 35.9774 42.1827 O.3 0 **** -0.452
2532 C 85.4966 37.9169 39.3691 C.3 0 **** -0.159
2533 C 87.8876 38.5273 40.8045 C.3 0 **** -0.159
2534 O 88.3511 35.1732 44.1684 O.3 0 **** -0.452
2535 O 84.5942 36.436 47.981 O.3 0 **** -0.452
2536 O 86.3002 35.9093 49.715 O.2 0 **** -0.419
2537 O 89.9783 34.8032 46.0472 O.2 0 **** -0.419
2538 C 97.3658 32.2332 46.8338 C.3 0 **** -0.159
2539 C 96.2055 31.0846 44.3696 C.3 0 **** -0.159
2540 H 81.7803 38.7128 47.859 H 0 **** 0.053
2541 H 81.2753 37.0874 48.4104 H 0 **** 0.053
2542 H 77.4157 37.4572 47.2278 H 0 **** 0.053
2543 H 77.5605 39.1076 46.565 H 0 **** 0.053
2544 H 82.943 37.195 47.0657 H 0 **** 0.1268
2545 H 88.0501 36.7193 42.6679 H 0 **** 0.053
2546 H 87.0955 35.9275 41.4057 H 0 **** 0.053
2547 H 86.6037 38.7387 42.5089 H 0 **** 0.053
2548 H 84.8286 38.9685 41.119 H 0 **** 0.053
2549 H 84.6704 35.977 40.6826 H 0 **** 0.053
2550 H 83.3904 37.1315 41.0641 H 0 **** 0.053
2551 H 88.0835 35.7397 51.3342 H 0 **** 0.053
2552 H 88.5933 34.0662 51.0489 H 0 **** 0.053
2553 H 90.417 35.4051 52.0659 H 0 **** 0.053
2554 H 90.3158 36.6272 50.7958 H 0 **** 0.053
2555 H 93.0769 35.7498 52.0501 H 0 **** 0.053
2556 H 92.0654 34.4372 52.6803 H 0 **** 0.053
2557 H 93.8464 32.827 52.5705 H 0 **** 0.053
2558 H 94.5175 34.2797 53.3292 H 0 **** 0.053
2559 H 96.1153 33.4525 51.6103 H 0 **** 0.053
2560 H 95.4171 34.9837 51.0451 H 0 **** 0.053
2561 H 94.5685 32.1376 50.2478 H 0 **** 0.053
2562 H 95.8058 34.485 48.6606 H 0 **** 0.053
2563 H 96.5967 32.952 49.105 H 0 **** 0.053
2564 H 92.0425 32.365 45.9574 H 0 **** 0.1268
2565 H 93.5486 31.3345 44.3066 H 0 **** 0.1268
2566 H 80.5052 39.4104 52.7817 H 0 **** 0.053
2567 H 78.9583 40.1554 53.0179 H 0 **** 0.053
2568 H 79.784 42.287 51.8822 H 0 **** 0.053
2569 H 81.3856 41.5317 51.6798 H 0 **** 0.053
2570 H 80.7577 41.8615 53.3122 H 0 **** 0.053
2571 H 76.3338 41.1788 50.801 H 0 **** 0.053
2572 H 77.5859 41.4254 51.9958 H 0 **** 0.053
2573 H 76.5771 39.9545 52.0782 H 0 **** 0.053
2574 H 82.4301 39.4439 49.7791 H 0 **** 0.053
2575 H 82.0383 37.8219 50.4213 H 0 **** 0.053
2576 H 82.0188 39.2354 51.4747 H 0 **** 0.053
2577 H 75.9097 38.8177 48.1069 H 0 **** 0.053
2578 H 76.0461 40.5715 48.3854 H 0 **** 0.053
2579 H 75.5279 39.4636 49.69 H 0 **** 0.053
2580 H 77.1027 36.943 43.5719 H 0 **** 0.053
2581 H 77.1604 38.685 43.9824 H 0 **** 0.053
2582 H 76.691 37.4548 45.1923 H 0 **** 0.053
2583 H 80.1451 37.5279 41.6977 H 0 **** 0.053
2584 H 78.4594 37.6451 42.1396 H 0 **** 0.053
2585 H 79.2221 36.0251 42.0473 H 0 **** 0.053
2586 H 82.5827 35.4722 41.8538 H 0 **** 0.41
2587 H 86.0128 38.7891 38.9463 H 0 **** 0.053
2588 H 84.5029 37.8569 38.886 H 0 **** 0.053
2589 H 86.0553 37.0032 39.0857 H 0 **** 0.053
2590 H 88.8064 38.593 41.4171 H 0 **** 0.053
2591 H 87.6993 39.5262 40.3832 H 0 **** 0.053
2592 H 88.1029 37.8271 39.9729 H 0 **** 0.053
2593 H 89.2013 34.9726 44.5878 H 0 **** 0.41
2594 H 84.982 36.3183 48.8611 H 0 **** 0.41
2595 H 97.7398 33.2332 47.1229 H 0 **** 0.053
2596 H 97.9412 31.9527 45.9309 H 0 **** 0.053
2597 H 97.6633 31.5182 47.6286 H 0 **** 0.053
2598 H 96.9072 31.8189 43.9334 H 0 **** 0.053
2599 H 95.609 30.6865 43.53 H 0 **** 0.053
2600 H 96.8019 30.2409 44.7588 H 0 **** 0.053
2601 C1 72.3995 57.4413 48.0772 C.ar 0 **** 0.042
2602 C2 71.0812 57.514 47.6673 C.ar 0 **** -0.1268
2603 C3 70.17 58.3003 48.3529 C.ar 0 **** 0
2604 C4 70.5569 59.0372 49.4731 C.ar 0 **** 0
2605 C5 71.8952 58.9673 49.8714 C.ar 0 **** -0.1268
2606 C6 72.8123 58.1731 49.1992 C.ar 0 **** 0
2607 C7 69.3777 59.7401 49.955 C.ar 0 **** 0
2608 C8 68.3259 59.4233 49.1133 C.ar 0 **** 0
2609 C9 68.7192 58.4834 48.0258 C.3 0 **** -0.106
2610 C10 67.0686 59.9755 49.3321 C.ar 0 **** 0
2611 C11 66.8489 60.8623 50.4068 C.ar 0 **** 0
2612 C12 67.9636 61.1443 51.2431 C.ar 0 **** 0
2613 C13 69.2256 60.5782 51.0313 C.ar 0 **** 0
2614 C14 70.372 60.9116 51.9441 C.3 0 **** -0.106
2615 C15 69.8775 61.1798 53.3657 C.3 0 **** -0.106
2616 C16 68.9442 62.3584 53.3094 C.3 0 **** -0.106
2617 C17 67.7481 62.0954 52.4191 C.ar 0 **** 0
2618 C18 66.5558 62.6987 52.6603 C.ar 0 **** 0
2619 C19 65.4808 62.4645 51.8497 C.ar 0 **** 0
2620 C20 65.5578 61.4523 50.6399 C.ar 0 **** 0
2621 C21 64.4812 61.0379 49.7576 C.ar 0 **** 0
2622 C22 64.8021 60.179 48.701 C.ar 0 **** 0
2623 C23 66.0263 59.6516 48.4788 C.ar 0 **** 0.042
2624 C24 64.1702 63.1872 52.1242 C.3 0 **** -0.106
2625 C25 64.2172 64.3404 53.1688 C.ar 0 **** 0
2626 C26 65.318 64.5069 53.9727 C.ar 0 **** 0
2627 C27 66.524 63.6319 53.8674 C.3 0 **** -0.106
2628 C28 65.3389 65.5056 54.944 C.ar 0 **** 0.042
2629 C29 64.2635 66.3523 55.1503 C.ar 0 **** 0
2630 C30 63.166 66.1767 54.3217 C.ar 0 **** 0
2631 C31 63.1265 65.1883 53.3417 C.ar 0 **** 0
2632 C32 61.9146 67.0606 54.4486 C.ar 0 **** 0
2633 C33 62.0079 68.1232 55.5483 C.3 0 **** -0.106
2634 C34 62.8782 67.6798 56.7223 C.3 0 **** -0.106
2635 C35 64.2936 67.4318 56.2055 C.3 0 **** -0.106
2636 C36 61.8769 65.0843 52.4909 C.ar 0 **** -0.1268
2637 C37 60.8332 65.9283 52.7041 C.ar 0 **** 0.0265
2638 C38 60.8368 66.8832 53.6448 C.ar 0 **** -0.1268
2639 C39 63.6993 59.805 47.7817 C.3 0 **** -0.106
2640 C40 62.6026 60.54 48.4811 C.ar 0 **** 0
2641 C41 63.0415 61.2447 49.6037 C.ar 0 **** 0
2642 C42 62.035 61.9169 50.3279 C.ar 0 **** -0.1268
2643 C43 60.687 61.9114 49.9128 C.ar 0 **** 0
2644 C44 60.2852 61.2033 48.7603 C.ar 0 **** 0
2645 C45 61.2684 60.5005 48.0458 C.ar 0 **** 0
2646 C46 60.8818 59.7585 46.9084 C.ar 0 **** -0.1268
2647 C47 59.569 59.7004 46.4663 C.ar 0 **** 0
2648 C48 58.6158 60.3969 47.1861 C.ar 0 **** -0.1268
2649 C49 58.9381 61.1507 48.3269 C.ar 0 **** 0
2650 C50 57.968 61.8505 49.0664 C.ar 0 **** 0.042
2651 C51 58.3301 62.5596 50.1946 C.ar 0 **** -0.1268
2652 C52 59.6553 62.5879 50.6205 C.ar 0 **** -0.1268
2653 O53 73.3077 56.6643 47.3984 O.3 0 **** -0.452
2654 C54 74.2625 58.1195 49.6546 C.3 0 **** -0.159
2655 O55 66.2155 58.8206 47.4391 O.3 0 **** -0.452
2656 C56 59.298 58.8529 45.2281 C.3 0 **** -0.106
2657 C57 57.8616 58.9917 44.7117 C.3 0 **** -0.159
2658 O58 59.7439 65.7937 51.9299 O.3 0 **** -0.4365
2659 O59 66.4226 65.7032 55.7561 O.3 0 **** -0.452
2660 O60 56.6567 61.8843 48.7585 O.3 0 **** -0.452
2661 H61 70.7152 56.9509 46.7782 H 0 **** 0.1268
2662 H62 72.3076 59.5309 50.7192 H 0 **** 0.1268
2663 H63 68.1942 57.5121 48.0709 H 0 **** 0.053
2664 H64 68.6127 58.911 47.0119 H 0 **** 0.053
2665 H65 71.0838 60.0939 52.0099 H 0 **** 0.053
2666 H66 70.9119 61.814 51.5816 H 0 **** 0.053
2667 H67 69.3744 60.2727 53.7811 H 0 **** 0.053
2668 H68 70.7499 61.3922 54.0518 H 0 **** 0.053
2669 H69 68.6293 62.5941 54.3334 H 0 **** 0.053
2670 H70 69.5024 63.2354 52.9372 H 0 **** 0.053
2671 H71 63.8075 63.6176 51.1671 H 0 **** 0.053
2672 H72 67.4035 64.2794 53.794 H 0 **** 0.053
2673 H73 62.4274 69.0512 55.1091 H 0 **** 0.053
2674 H74 60.9841 68.3577 55.8713 H 0 **** 0.053
2675 H75 62.8862 68.4566 57.4968 H 0 **** 0.053
2676 H76 62.467 66.7698 57.1821 H 0 **** 0.053
2677 H77 64.7027 68.3519 55.7666 H 0 **** 0.053
2678 H78 64.9487 67.1438 57.0201 H 0 **** 0.053
2679 H79 61.8582 64.3392 51.7189 H 0 **** 0.1268
2680 H80 59.9963 67.5441 53.7874 H 0 **** 0.1268
2681 H81 63.8383 60.1864 46.7578 H 0 **** 0.053
2682 H82 63.4953 58.7224 47.7628 H 0 **** 0.053
2683 H83 62.19 62.4583 51.2497 H 0 **** 0.1268
2684 H84 61.6459 59.1993 46.3378 H 0 **** 0.1268
2685 H85 57.5845 60.3496 46.846 H 0 **** 0.1268
2686 H86 57.5859 63.1107 50.793 H 0 **** 0.1268
2687 H87 59.933 63.1378 51.5637 H 0 **** 0.1268
2688 H88 72.8558 56.2457 46.6781 H 0 **** 0.41
2689 H89 74.6943 57.129 49.4695 H 0 **** 0.053
2690 H90 74.3625 58.3162 50.731 H 0 **** 0.053
2691 H91 74.8677 58.8596 49.107 H 0 **** 0.053
2692 H92 65.4069 58.6999 46.9609 H 0 **** 0.41
2693 H93 59.9848 59.1442 44.4267 H 0 **** 0.053
2694 H94 57.6986 58.3737 43.8067 H 0 **** 0.053
2695 H95 57.6244 60.0375 44.437 H 0 **** 0.053
2696 H96 57.1224 58.6577 45.4636 H 0 **** 0.053
2697 H97 59.8852 65.1562 51.2484 H 0 **** 0.41
2698 H98 67.0979 65.0755 55.5557 H 0 **** 0.41
2699 H99 56.5025 61.3666 47.9787 H 0 **** 0.41
2700 H100 63.4768 62.4288 52.5414 H 0 **** 0.053
2701 H101 66.6046 63.014 54.7693 H 0 **** 0.053
2702 H102 59.4916 57.7983 45.4552 H 0 **** 0.053
2703 C1 36.8407 84.8959 59.5203 C.ar 0 **** 0.042
2704 C2 38.1528 84.4632 59.4725 C.ar 0 **** -0.1268
2705 C3 38.9783 84.5862 60.5779 C.ar 0 **** 0
2706 C4 38.5091 85.1495 61.7655 C.ar 0 **** 0
2707 C5 37.1768 85.5713 61.8077 C.ar 0 **** -0.1268
2708 C6 36.3461 85.464 60.7024 C.ar 0 **** 0
2709 C7 39.612 85.136 62.7143 C.ar 0 **** 0
2710 C8 40.7008 84.5583 62.085 C.ar 0 **** 0
2711 C9 40.4111 84.1597 60.6786 C.3 0 **** -0.106
2712 C10 41.8993 84.4012 62.7723 C.ar 0 **** 0
2713 C11 42.0211 84.8234 64.1129 C.ar 0 **** 0
2714 C12 40.8729 85.4176 64.7047 C.ar 0 **** 0
2715 C13 39.6709 85.5884 64.0089 C.ar 0 **** 0
2716 C14 38.4853 86.2207 64.6823 C.3 0 **** -0.106
2717 C15 38.9316 87.2575 65.7134 C.3 0 **** -0.106
2718 C16 39.7548 86.5439 66.751 C.3 0 **** -0.106
2719 C17 40.9833 85.8911 66.1531 C.ar 0 **** 0
2720 C18 42.112 85.7275 66.8901 C.ar 0 **** 0
2721 C19 43.2159 85.1308 66.3489 C.ar 0 **** 0
2722 C20 43.2496 84.6566 64.8427 C.ar 0 **** 0
2723 C21 44.3725 84.0961 64.1119 C.ar 0 **** 0
2724 C22 44.1471 83.6778 62.7958 C.ar 0 **** 0
2725 C23 42.9796 83.8186 62.1298 C.ar 0 **** 0.042
2726 C24 44.4512 84.9272 67.2141 C.3 0 **** -0.106
2727 C25 44.2841 85.1906 68.7392 C.ar 0 **** 0
2728 C26 43.1606 85.8189 69.2177 C.ar 0 **** 0
2729 C27 42.0407 86.2434 68.3247 C.3 0 **** -0.106
2730 C28 43.0338 86.1024 70.576 C.ar 0 **** 0.042
2731 C29 44.0247 85.7833 71.4884 C.ar 0 **** 0
2732 C30 45.1461 85.1391 70.9889 C.ar 0 **** 0
2733 C31 45.2905 84.8418 69.6361 C.ar 0 **** 0
2734 C32 46.3101 84.7276 71.9045 C.ar 0 **** 0
2735 C33 46.1042 85.0874 73.3792 C.3 0 **** -0.106
2736 C34 45.2597 86.3464 73.5645 C.3 0 **** -0.106
2737 C35 43.8806 86.095 72.9588 C.3 0 **** -0.106
2738 C36 46.5577 84.1347 69.1982 C.ar 0 **** -0.1268
2739 C37 47.5177 83.8245 70.1091 C.ar 0 **** 0.0265
2740 C38 47.4126 84.1082 71.4149 C.ar 0 **** -0.1268
2741 C39 45.2931 83.0633 62.0812 C.3 0 **** -0.106
2742 C40 46.3078 83.2192 63.1667 C.ar 0 **** 0
2743 C41 45.7897 83.8033 64.3244 C.ar 0 **** 0
2744 C42 46.7198 84.0169 65.363 C.ar 0 **** -0.1268
2745 C43 48.0688 83.621 65.2495 C.ar 0 **** 0
2746 C44 48.5507 83.0149 64.0697 C.ar 0 **** 0
2747 C45 47.6465 82.8252 63.0123 C.ar 0 **** 0
2748 C46 48.1159 82.2504 61.8109 C.ar 0 **** -0.1268
2749 C47 49.4352 81.8619 61.635 C.ar 0 **** 0
2750 C48 50.3098 82.0602 62.6877 C.ar 0 **** -0.1268
2751 C49 49.9034 82.6287 63.9069 C.ar 0 **** 0
2752 C50 50.794 82.8404 64.9746 C.ar 0 **** 0.042
2753 C51 50.3522 83.425 66.1452 C.ar 0 **** -0.1268
2754 C52 49.0237 83.8173 66.2853 C.ar 0 **** -0.1268
2755 O53 36.0171 84.7742 58.4268 O.3 0 **** -0.452
2756 C54 34.9 85.929 60.7794 C.3 0 **** -0.159
2757 O55 42.8838 83.3961 60.8567 O.3 0 **** -0.452
2758 C56 49.8003 81.2632 60.2807 C.3 0 **** -0.106
2759 C57 51.2257 80.7015 60.2406 C.3 0 **** -0.159
2760 O58 48.6262 83.2031 69.672 O.3 0 **** -0.4365
2761 O59 41.9238 86.7193 71.0864 O.3 0 **** -0.452
2762 O60 52.1009 82.5132 64.9503 O.3 0 **** -0.452
2763 H61 38.5814 84.0022 58.5533 H 0 **** 0.1268
2764 H62 36.702 85.9986 62.7014 H 0 **** 0.1268
2765 H63 41.0214 84.7001 59.9325 H 0 **** 0.053
2766 H64 40.4937 83.0715 60.5015 H 0 **** 0.053
2767 H65 37.8497 86.7406 63.9713 H 0 **** 0.053
2768 H66 37.8711 85.4504 65.1988 H 0 **** 0.053
2769 H67 39.5088 88.0762 65.2183 H 0 **** 0.053
2770 H68 38.0333 87.7535 66.1865 H 0 **** 0.053
2771 H69 40.0315 87.2694 67.5259 H 0 **** 0.053
2772 H70 39.1249 85.7798 67.2395 H 0 **** 0.053
2773 H71 44.7877 83.8763 67.0916 H 0 **** 0.053
2774 H72 41.1071 85.866 68.7539 H 0 **** 0.053
2775 H73 45.6092 84.2339 73.886 H 0 **** 0.053
2776 H74 47.0975 85.1964 73.8363 H 0 **** 0.053
2777 H75 45.1697 86.583 74.6319 H 0 **** 0.053
2778 H76 45.7451 87.2075 73.0831 H 0 **** 0.053
2779 H77 43.3964 85.2462 73.4603 H 0 **** 0.053
2780 H78 43.2423 86.9601 73.0994 H 0 **** 0.053
2781 H79 46.6552 83.8824 68.1595 H 0 **** 0.1268
2782 H80 48.1866 83.8485 72.1193 H 0 **** 0.1268
2783 H81 45.1357 82.0004 61.8394 H 0 **** 0.053
2784 H82 45.595 83.6208 61.1802 H 0 **** 0.053
2785 H83 46.5022 84.5089 66.2998 H 0 **** 0.1268
2786 H84 47.415 82.0958 60.9704 H 0 **** 0.1268
2787 H85 51.3464 81.7619 62.5521 H 0 **** 0.1268
2788 H86 51.0343 83.608 66.9916 H 0 **** 0.1268
2789 H87 48.6828 84.3281 67.2297 H 0 **** 0.1268
2790 H88 36.5134 84.3734 57.7264 H 0 **** 0.41
2791 H89 34.5625 86.32 59.8124 H 0 **** 0.053
2792 H90 34.7659 86.7347 61.5145 H 0 **** 0.053
2793 H91 34.2382 85.0922 61.0546 H 0 **** 0.053
2794 H92 43.7063 83.0215 60.5734 H 0 **** 0.41
2795 H93 49.1024 80.4562 60.0355 H 0 **** 0.053
2796 H94 51.4577 80.2654 59.2487 H 0 **** 0.053
2797 H95 51.3719 79.9003 60.9904 H 0 **** 0.053
2798 H96 51.9804 81.4885 60.4268 H 0 **** 0.053
2799 H97 48.5498 82.9793 68.7581 H 0 **** 0.41
2800 H98 41.3137 86.9147 70.3938 H 0 **** 0.41
2801 H99 52.3155 82.1352 64.1068 H 0 **** 0.41
2802 H100 45.2043 85.6608 66.8609 H 0 **** 0.053
2803 H101 42.003 87.3383 68.2843 H 0 **** 0.053
2804 H102 49.7013 82.0274 59.5015 H 0 **** 0.053
2805 C1 23.3691 20.2042 23.295 C.ar 0 **** 0.042
2806 C2 22.938 18.8982 23.1547 C.ar 0 **** -0.1268
2807 C3 23.1466 18.2079 21.9723 C.ar 0 **** 0
2808 C4 23.7945 18.8111 20.8934 C.ar 0 **** 0
2809 C5 24.2371 20.1282 21.0498 C.ar 0 **** -0.1268
2810 C6 24.0218 20.8322 22.2254 C.ar 0 **** 0
2811 C7 23.847 17.8306 19.8197 C.ar 0 **** 0
2812 C8 23.249 16.6704 20.2796 C.ar 0 **** 0
2813 C9 22.7456 16.7947 21.6766 C.3 0 **** -0.106
2814 C10 23.175 15.5518 19.4568 C.ar 0 **** 0
2815 C11 23.7062 15.5827 18.1504 C.ar 0 **** 0
2816 C12 24.3003 16.8038 17.729 C.ar 0 **** 0
2817 C13 24.363 17.9337 18.552 C.ar 0 **** 0
2818 C14 25.004 19.2001 18.0582 C.3 0 **** -0.106
2819 C15 24.8122 19.3563 16.5495 C.3 0 **** -0.106
2820 C16 25.4773 18.1839 15.8813 C.3 0 **** -0.106
2821 C17 24.8746 16.8643 16.3147 C.ar 0 **** 0
2822 C18 24.8703 15.794 15.479 C.ar 0 **** 0
2823 C19 24.332 14.6026 15.877 C.ar 0 **** 0
2824 C20 23.6494 14.4306 17.2907 C.ar 0 **** 0
2825 C21 22.9606 13.2617 17.8089 C.ar 0 **** 0
2826 C22 22.4943 13.3145 19.1268 C.ar 0 **** 0
2827 C23 22.5772 14.3962 19.9328 C.ar 0 **** 0.042
2828 C24 24.3791 13.4115 14.9309 C.3 0 **** -0.106
2829 C25 25.2659 13.5661 13.6609 C.ar 0 **** 0
2830 C26 25.7553 14.7973 13.3 C.ar 0 **** 0
2831 C27 25.5016 16.0271 14.1093 C.3 0 **** -0.106
2832 C28 26.5043 14.9456 12.1345 C.ar 0 **** 0.042
2833 C29 26.7726 13.8797 11.2931 C.ar 0 **** 0
2834 C30 26.2808 12.6426 11.68 C.ar 0 **** 0
2835 C31 25.5343 12.4717 12.8429 C.ar 0 **** 0
2836 C32 26.5205 11.382 10.8329 C.ar 0 **** 0
2837 C33 27.3364 11.6298 9.55998 C.3 0 **** -0.106
2838 C34 27.1261 13.0309 8.98956 C.3 0 **** -0.106
2839 C35 27.5845 14.0489 10.0313 C.3 0 **** -0.106
2840 C36 25.0456 11.0755 13.1715 C.ar 0 **** -0.1268
2841 C37 25.3252 10.0397 12.3372 C.ar 0 **** 0.0265
2842 C38 26.0323 10.1731 11.2062 C.ar 0 **** -0.1268
2843 C39 21.8364 12.094 19.655 C.3 0 **** -0.106
2844 C40 21.9193 11.2715 18.4103 C.ar 0 **** 0
2845 C41 22.5595 11.9292 17.3582 C.ar 0 **** 0
2846 C42 22.6207 11.2127 16.1447 C.ar 0 **** -0.1268
2847 C43 22.1098 9.90345 16.0243 C.ar 0 **** 0
2848 C44 21.4869 9.26412 17.1171 C.ar 0 **** 0
2849 C45 21.3868 9.97527 18.3236 C.ar 0 **** 0
2850 C46 20.738 9.36602 19.4196 C.ar 0 **** -0.1268
2851 C47 20.1989 8.09036 19.3525 C.ar 0 **** 0
2852 C48 20.3052 7.4086 18.1543 C.ar 0 **** -0.1268
2853 C49 20.9378 7.96176 17.0285 C.ar 0 **** 0
2854 C50 21.0392 7.27268 15.8069 C.ar 0 **** 0.042
2855 C51 21.6477 7.86863 14.7198 C.ar 0 **** -0.1268
2856 C52 22.1664 9.15726 14.8148 C.ar 0 **** -0.1268
2857 O53 23.1677 20.8893 24.4694 O.3 0 **** -0.452
2858 C54 24.5162 22.2635 22.3668 C.3 0 **** -0.159
2859 O55 22.078 14.3382 21.1797 O.3 0 **** -0.452
2860 C56 19.52 7.56444 20.6124 C.3 0 **** -0.106
2861 C57 19.1159 6.09002 20.5024 C.3 0 **** -0.159
2862 O58 24.8659 8.82186 12.6678 O.3 0 **** -0.4365
2863 O59 27.013 16.1563 11.7499 O.3 0 **** -0.452
2864 O60 20.5687 6.02783 15.5959 O.3 0 **** -0.452
2865 H61 22.417 18.3635 23.982 H 0 **** 0.1268
2866 H62 24.7813 20.6824 20.273 H 0 **** 0.1268
2867 H63 21.6493 16.6848 21.762 H 0 **** 0.053
2868 H64 23.2394 16.1066 22.3872 H 0 **** 0.053
2869 H65 24.5653 20.0792 18.5212 H 0 **** 0.053
2870 H66 26.0945 19.1985 18.2777 H 0 **** 0.053
2871 H67 23.7248 19.4138 16.2982 H 0 **** 0.053
2872 H68 25.2643 20.3291 16.1942 H 0 **** 0.053
2873 H69 25.395 18.3174 14.7956 H 0 **** 0.053
2874 H70 26.5544 18.2013 16.1245 H 0 **** 0.053
2875 H71 24.7582 12.5361 15.4988 H 0 **** 0.053
2876 H72 26.4634 16.5209 14.2809 H 0 **** 0.053
2877 H73 28.4106 11.485 9.79472 H 0 **** 0.053
2878 H74 27.0615 10.8531 8.8329 H 0 **** 0.053
2879 H75 27.7019 13.1485 8.06325 H 0 **** 0.053
2880 H76 26.0683 13.1863 8.73347 H 0 **** 0.053
2881 H77 28.6472 13.8989 10.2651 H 0 **** 0.053
2882 H78 27.4778 15.0575 9.64755 H 0 **** 0.053
2883 H79 24.4914 10.9414 14.0805 H 0 **** 0.1268
2884 H80 26.244 9.33167 10.5649 H 0 **** 0.1268
2885 H81 22.3947 11.6205 20.4778 H 0 **** 0.053
2886 H82 20.7868 12.2565 19.9481 H 0 **** 0.053
2887 H83 23.0255 11.5944 15.2188 H 0 **** 0.1268
2888 H84 20.6502 9.91598 20.3747 H 0 **** 0.1268
2889 H85 19.8777 6.41084 18.0961 H 0 **** 0.1268
2890 H86 21.7292 7.35248 13.7489 H 0 **** 0.1268
2891 H87 22.6266 9.64844 13.9112 H 0 **** 0.1268
2892 H88 22.7 20.3157 25.0621 H 0 **** 0.41
2893 H89 23.8433 22.8492 23.0042 H 0 **** 0.053
2894 H90 24.5659 22.778 21.397 H 0 **** 0.053
2895 H91 25.5183 22.2836 22.8242 H 0 **** 0.053
2896 H92 21.6992 13.486 21.3452 H 0 **** 0.41
2897 H93 20.1951 7.67666 21.4671 H 0 **** 0.053
2898 H94 18.6357 5.73452 21.4355 H 0 **** 0.053
2899 H95 19.9911 5.43759 20.3193 H 0 **** 0.053
2900 H96 18.3874 5.92538 19.6865 H 0 **** 0.053
2901 H97 24.453 8.83178 13.516 H 0 **** 0.41
2902 H98 26.771 16.8239 12.3713 H 0 **** 0.41
2903 H99 20.1397 5.71546 16.3825 H 0 **** 0.41
2904 H100 23.3436 13.2653 14.5614 H 0 **** 0.053
2905 H101 24.844 16.7019 13.549 H 0 **** 0.053
2906 H102 18.6254 8.16121 20.8243 H 0 **** 0.053
2907 C1 0.0921034 15.4518 33.6877 C.ar 0 **** 0.042
2908 C2 0.336796 15.9095 32.4063 C.ar 0 **** -0.1268
2909 C3 1.57041 15.7115 31.8084 C.ar 0 **** 0
2910 C4 2.59675 15.0476 32.4818 C.ar 0 **** 0
2911 C5 2.33475 14.577 33.772 C.ar 0 **** -0.1268
2912 C6 1.10715 14.7813 34.3841 C.ar 0 **** 0
2913 C7 3.74549 15.0125 31.5897 C.ar 0 **** 0
2914 C8 3.38084 15.6365 30.4096 C.ar 0 **** 0
2915 C9 1.97905 16.1414 30.4323 C.3 0 **** -0.106
2916 C10 4.29093 15.7318 29.3625 C.ar 0 **** 0
2917 C11 5.58975 15.1957 29.4865 C.ar 0 **** 0
2918 C12 5.91102 14.5741 30.7242 C.ar 0 **** 0
2919 C13 4.99994 14.4899 31.7829 C.ar 0 **** 0
2920 C14 5.38949 13.8197 33.0704 C.3 0 **** -0.106
2921 C15 6.88114 14.0023 33.3513 C.3 0 **** -0.106
2922 C16 7.64003 13.3606 32.2218 C.3 0 **** -0.106
2923 C17 7.31489 13.9935 30.8854 C.ar 0 **** 0
2924 C18 8.23366 14.0181 29.8859 C.ar 0 **** 0
2925 C19 7.93342 14.5835 28.6785 C.ar 0 **** 0
2926 C20 6.53917 15.2745 28.4087 C.ar 0 **** 0
2927 C21 6.11736 15.9901 27.2174 C.ar 0 **** 0
2928 C22 4.80022 16.4596 27.1745 C.ar 0 **** 0
2929 C23 3.91011 16.3563 28.186 C.ar 0 **** 0.042
2930 C24 8.97181 14.5591 27.5665 C.3 0 **** -0.106
2931 C25 10.2239 13.6651 27.8034 C.ar 0 **** 0
2932 C26 10.4841 13.1476 29.0484 C.ar 0 **** 0
2933 C27 9.57906 13.377 30.2143 C.3 0 **** -0.106
2934 C28 11.6328 12.3918 29.2733 C.ar 0 **** 0.042
2935 C29 12.5567 12.144 28.2728 C.ar 0 **** 0
2936 C30 12.2713 12.6647 27.0201 C.ar 0 **** 0
2937 C31 11.127 13.4185 26.7728 C.ar 0 **** 0
2938 C32 13.2169 12.4504 25.8271 C.ar 0 **** 0
2939 C33 14.464 11.6241 26.1576 C.3 0 **** -0.106
2940 C34 14.9206 11.8012 27.604 C.3 0 **** -0.106
2941 C35 13.7995 11.3242 28.5245 C.3 0 **** -0.106
2942 C36 10.9129 13.9399 25.3662 C.ar 0 **** -0.1268
2943 C37 11.8283 13.6821 24.3953 C.ar 0 **** 0.0265
2944 C38 12.9433 12.9678 24.6037 C.ar 0 **** -0.1268
2945 C39 4.37267 17.1457 25.9304 C.3 0 **** -0.106
2946 C40 5.6792 17.0768 25.209 C.ar 0 **** 0
2947 C41 6.67416 16.4189 25.9347 C.ar 0 **** 0
2948 C42 7.94122 16.3695 25.3169 C.ar 0 **** -0.1268
2949 C43 8.16719 16.9087 24.0334 C.ar 0 **** 0
2950 C44 7.13018 17.5491 23.3222 C.ar 0 **** 0
2951 C45 5.87056 17.6373 23.9361 C.ar 0 **** 0
2952 C46 4.82801 18.3031 23.2554 C.ar 0 **** -0.1268
2953 C47 4.99822 18.8697 22.0014 C.ar 0 **** 0
2954 C48 6.24718 18.7746 21.416 C.ar 0 **** -0.1268
2955 C49 7.32417 18.1271 22.0441 C.ar 0 **** 0
2956 C50 8.5979 18.0392 21.4548 C.ar 0 **** 0.042
2957 C51 9.63195 17.4122 22.1215 C.ar 0 **** -0.1268
2958 C52 9.43266 16.8643 23.3858 C.ar 0 **** -0.1268
2959 O53 -1.13136 15.6438 34.2839 O.3 0 **** -0.452
2960 C54 0.850827 14.2551 35.7879 C.3 0 **** -0.159
2961 O55 2.67297 16.8614 28.0394 O.3 0 **** -0.452
2962 C56 3.78555 19.5638 21.391 C.3 0 **** -0.106
2963 C57 4.01439 19.9996 19.9395 C.3 0 **** -0.159
2964 O58 11.5994 14.1719 23.1658 O.3 0 **** -0.4365
2965 O59 11.9185 11.856 30.4996 O.3 0 **** -0.452
2966 O60 8.91131 18.5424 20.2447 O.3 0 **** -0.452
2967 H61 -0.445174 16.4431 31.8187 H 0 **** 0.1268
2968 H62 3.06257 14.0166 34.3744 H 0 **** 0.1268
2969 H63 1.90423 17.2401 30.3399 H 0 **** 0.053
2970 H64 1.32504 15.6647 29.6791 H 0 **** 0.053
2971 H65 4.85782 14.2404 33.919 H 0 **** 0.053
2972 H66 5.16874 12.7303 33.0276 H 0 **** 0.053
2973 H67 7.12869 15.0872 33.4529 H 0 **** 0.053
2974 H68 7.156 13.5276 34.3392 H 0 **** 0.053
2975 H69 8.71159 13.4362 32.4438 H 0 **** 0.053
2976 H70 7.39452 12.2843 32.1962 H 0 **** 0.053
2977 H71 8.47545 14.2009 26.6402 H 0 **** 0.053
2978 H72 9.3668 12.4052 30.6713 H 0 **** 0.053
2979 H73 14.2391 10.5541 25.9712 H 0 **** 0.053
2980 H74 15.2515 11.9128 25.4478 H 0 **** 0.053
2981 H75 15.8332 11.2193 27.7827 H 0 **** 0.053
2982 H76 15.165 12.8545 27.8029 H 0 **** 0.053
2983 H77 13.5766 10.2658 28.3324 H 0 **** 0.053
2984 H78 14.101 11.4069 29.5627 H 0 **** 0.053
2985 H79 10.0175 14.4984 25.171 H 0 **** 0.1268
2986 H80 13.6493 12.772 23.8121 H 0 **** 0.1268
2987 H81 3.58976 16.6004 25.3801 H 0 **** 0.053
2988 H82 4.069 18.1924 26.0919 H 0 **** 0.053
2989 H83 8.8327 15.9526 25.7621 H 0 **** 0.1268
2990 H84 3.83181 18.381 23.7283 H 0 **** 0.1268
2991 H85 6.38612 19.2223 20.4353 H 0 **** 0.1268
2992 H86 10.64 17.3369 21.6816 H 0 **** 0.1268
2993 H87 10.2926 16.389 23.9368 H 0 **** 0.1268
2994 H88 -1.68558 16.1115 33.6739 H 0 **** 0.41
2995 H89 0.169147 14.9165 36.3353 H 0 **** 0.053
2996 H90 1.77582 14.1901 36.3775 H 0 **** 0.053
2997 H91 0.391389 13.2545 35.7484 H 0 **** 0.053
2998 H92 2.57586 17.2563 27.184 H 0 **** 0.41
2999 H93 2.92386 18.8889 21.4192 H 0 **** 0.053
3000 H94 3.11365 20.4903 19.5207 H 0 **** 0.053
3001 H95 4.24793 19.1379 19.2851 H 0 **** 0.053
3002 H96 4.84224 20.7284 19.8568 H 0 **** 0.053
3003 H97 10.7472 14.5743 23.1117 H 0 **** 0.41
3004 H98 11.2445 12.0836 31.1195 H 0 **** 0.41
3005 H99 8.14619 18.9593 19.8693 H 0 **** 0.41
3006 H100 9.35347 15.5963 27.473 H 0 **** 0.053
3007 H101 10.0844 14.0177 30.9462 H 0 **** 0.053
3008 H102 3.5277 20.4457 21.9885 H 0 **** 0.053
3009 C1 29.6128 79.8156 68.5705 C.ar 0 **** 0.042
3010 C2 30.7558 80.109 69.291 C.ar 0 **** -0.1268
3011 C3 31.2218 79.2393 70.2631 C.ar 0 **** 0
3012 C4 30.5521 78.0467 70.5402 C.ar 0 **** 0
3013 C5 29.4072 77.7512 69.7941 C.ar 0 **** -0.1268
3014 C6 28.9251 78.6215 68.8276 C.ar 0 **** 0
3015 C7 31.2866 77.3769 71.6027 C.ar 0 **** 0
3016 C8 32.3757 78.1678 71.9244 C.ar 0 **** 0
3017 C9 32.44 79.4185 71.117 C.3 0 **** -0.106
3018 C10 33.2686 77.7565 72.908 C.ar 0 **** 0
3019 C11 33.0796 76.5341 73.5862 C.ar 0 **** 0
3020 C12 31.9395 75.7676 73.2199 C.ar 0 **** 0
3021 C13 31.0334 76.1878 72.2397 C.ar 0 **** 0
3022 C14 29.8451 75.3378 71.8879 C.3 0 **** -0.106
3023 C15 29.3532 74.5566 73.1066 C.3 0 **** -0.106
3024 C16 30.4744 73.6594 73.5557 C.3 0 **** -0.106
3025 C17 31.7093 74.4436 73.9462 C.ar 0 **** 0
3026 C18 32.5673 73.9675 74.8848 C.ar 0 **** 0
3027 C19 33.685 74.6747 75.2284 C.ar 0 **** 0
3028 C20 34.0007 76.0873 74.5967 C.ar 0 **** 0
3029 C21 35.0917 76.9861 74.9299 C.ar 0 **** 0
3030 C22 35.2154 78.1618 74.1818 C.ar 0 **** 0
3031 C23 34.3563 78.5571 73.2163 C.ar 0 **** 0.042
3032 C24 34.6466 74.0943 76.2551 C.3 0 **** -0.106
3033 C25 34.4161 72.6099 76.6634 C.ar 0 **** 0
3034 C26 33.2583 71.9624 76.3086 C.ar 0 **** 0
3035 C27 32.1919 72.6201 75.4952 C.3 0 **** -0.106
3036 C28 33.0282 70.6509 76.7189 C.ar 0 **** 0.042
3037 C29 33.9338 69.9567 77.5026 C.ar 0 **** 0
3038 C30 35.1017 70.6226 77.8411 C.ar 0 **** 0
3039 C31 35.3536 71.9312 77.4373 C.ar 0 **** 0
3040 C32 36.1868 69.954 78.7007 C.ar 0 **** 0
3041 C33 35.8535 68.5203 79.1255 C.3 0 **** -0.106
3042 C34 34.353 68.2895 79.2908 C.3 0 **** -0.106
3043 C35 33.677 68.5357 77.9439 C.3 0 **** -0.106
3044 C36 36.663 72.5639 77.8633 C.ar 0 **** -0.1268
3045 C37 37.5426 71.8649 78.628 C.ar 0 **** 0.0265
3046 C38 37.3252 70.6081 79.0404 C.ar 0 **** -0.1268
3047 C39 36.3639 79.0441 74.5038 C.3 0 **** -0.106
3048 C40 36.918 78.2407 75.635 C.ar 0 **** 0
3049 C41 36.2005 77.0683 75.8802 C.ar 0 **** 0
3050 C42 36.6551 76.2975 76.9704 C.ar 0 **** -0.1268
3051 C43 37.7863 76.6687 77.7267 C.ar 0 **** 0
3052 C44 38.4978 77.852 77.4355 C.ar 0 **** 0
3053 C45 38.0395 78.6491 76.3745 C.ar 0 **** 0
3054 C46 38.7177 79.8538 76.0875 C.ar 0 **** -0.1268
3055 C47 39.8222 80.2787 76.81 C.ar 0 **** 0
3056 C48 40.2552 79.4808 77.8528 C.ar 0 **** -0.1268
3057 C49 39.6209 78.2729 78.1883 C.ar 0 **** 0
3058 C50 40.0536 77.4659 79.2555 C.ar 0 **** 0.042
3059 C51 39.3836 76.2978 79.5614 C.ar 0 **** -0.1268
3060 C52 38.2694 75.9047 78.8248 C.ar 0 **** -0.1268
3061 O53 29.1455 80.679 67.6082 O.3 0 **** -0.452
3062 C54 27.6787 78.2702 68.0295 C.3 0 **** -0.159
3063 O55 34.5662 79.7187 72.5724 O.3 0 **** -0.452
3064 C56 40.448 81.6049 76.3918 C.3 0 **** -0.106
3065 C57 41.761 81.9035 77.1241 C.3 0 **** -0.159
3066 O58 38.6869 72.4699 78.9868 O.3 0 **** -0.4365
3067 O59 31.8889 69.9745 76.3766 O.3 0 **** -0.452
3068 O60 41.1085 77.7506 80.044 O.3 0 **** -0.452
3069 H61 31.3353 81.0433 69.1112 H 0 **** 0.1268
3070 H62 28.8277 76.8257 69.9129 H 0 **** 0.1268
3071 H63 32.3477 80.3385 71.722 H 0 **** 0.053
3072 H64 33.3406 79.4873 70.4794 H 0 **** 0.053
3073 H65 29.0088 75.9397 71.5445 H 0 **** 0.053
3074 H66 30.1054 74.6133 71.0848 H 0 **** 0.053
3075 H67 29.0329 75.2576 73.916 H 0 **** 0.053
3076 H68 28.4371 73.9506 72.8412 H 0 **** 0.053
3077 H69 30.1115 73.0522 74.394 H 0 **** 0.053
3078 H70 30.7186 72.9596 72.737 H 0 **** 0.053
3079 H71 35.6757 74.1726 75.8458 H 0 **** 0.053
3080 H72 31.9422 71.9516 74.665 H 0 **** 0.053
3081 H73 36.2509 67.8228 78.3602 H 0 **** 0.053
3082 H74 36.3981 68.3147 80.0575 H 0 **** 0.053
3083 H75 34.1671 67.2624 79.6282 H 0 **** 0.053
3084 H76 33.9443 68.9608 80.0596 H 0 **** 0.053
3085 H77 34.0777 67.8467 77.188 H 0 **** 0.053
3086 H78 32.611 68.3509 78.0161 H 0 **** 0.053
3087 H79 36.8672 73.5632 77.5296 H 0 **** 0.1268
3088 H80 38.0446 70.0742 79.6413 H 0 **** 0.1268
3089 H81 37.0944 79.1246 73.6833 H 0 **** 0.053
3090 H82 36.061 80.0464 74.8469 H 0 **** 0.053
3091 H83 36.1825 75.3965 77.3333 H 0 **** 0.1268
3092 H84 38.3665 80.4913 75.2554 H 0 **** 0.1268
3093 H85 41.1177 79.8129 78.4249 H 0 **** 0.1268
3094 H86 39.7009 75.6528 80.3974 H 0 **** 0.1268
3095 H87 37.7076 74.9699 79.1072 H 0 **** 0.1268
3096 H88 29.7469 81.4088 67.5536 H 0 **** 0.41
3097 H89 27.1127 79.1723 67.7699 H 0 **** 0.053
3098 H90 26.9999 77.6175 68.5953 H 0 **** 0.053
3099 H91 27.9499 77.7609 67.0907 H 0 **** 0.053
3100 H92 35.3443 80.1435 72.9061 H 0 **** 0.41
3101 H93 40.6462 81.5938 75.315 H 0 **** 0.053
3102 H94 42.1963 82.8665 76.7915 H 0 **** 0.053
3103 H95 42.5219 81.1219 76.9355 H 0 **** 0.053
3104 H96 41.6115 81.9812 78.2172 H 0 **** 0.053
3105 H97 38.7735 73.3121 78.5697 H 0 **** 0.41
3106 H98 31.3271 70.5258 75.8564 H 0 **** 0.41
3107 H99 41.4979 78.5697 79.7656 H 0 **** 0.41
3108 H100 34.5093 74.688 77.1819 H 0 **** 0.053
3109 H101 31.302 72.7719 76.117 H 0 **** 0.053
3110 H102 39.7424 82.421 76.5845 H 0 **** 0.053
3111 C1 18.0717 71.2973 75.951 C.ar 0 **** 0.042
3112 C2 17.1578 71.5833 74.9539 C.ar 0 **** -0.1268
3113 C3 17.5592 72.2083 73.7847 C.ar 0 **** 0
3114 C4 18.8929 72.5663 73.5826 C.ar 0 **** 0
3115 C5 19.8118 72.2597 74.5907 C.ar 0 **** -0.1268
3116 C6 19.4178 71.6452 75.7701 C.ar 0 **** 0
3117 C7 18.9762 73.2003 72.2757 C.ar 0 **** 0
3118 C8 17.707 73.1948 71.7241 C.ar 0 **** 0
3119 C9 16.6904 72.5747 72.6201 C.3 0 **** -0.106
3120 C10 17.496 73.7288 70.4576 C.ar 0 **** 0
3121 C11 18.5658 74.2787 69.7207 C.ar 0 **** 0
3122 C12 19.8452 74.2652 70.341 C.ar 0 **** 0
3123 C13 20.0552 73.7398 71.6208 C.ar 0 **** 0
3124 C14 21.4294 73.747 72.2294 C.3 0 **** -0.106
3125 C15 22.2313 74.9584 71.7538 C.3 0 **** -0.106
3126 C16 22.3645 74.8595 70.2589 C.3 0 **** -0.106
3127 C17 21.0182 74.8632 69.566 C.ar 0 **** 0
3128 C18 20.8843 75.3604 68.3095 C.ar 0 **** 0
3129 C19 19.669 75.3541 67.6844 C.ar 0 **** 0
3130 C20 18.3674 74.8231 68.4041 C.ar 0 **** 0
3131 C21 17.0044 74.8399 67.9026 C.ar 0 **** 0
3132 C22 16.0149 74.2439 68.6918 C.ar 0 **** 0
3133 C23 16.2204 73.713 69.9173 C.ar 0 **** 0.042
3134 C24 19.561 75.8827 66.2616 C.3 0 **** -0.106
3135 C25 20.9007 76.1673 65.5216 C.ar 0 **** 0
3136 C26 22.0874 76.1847 66.2125 C.ar 0 **** 0
3137 C27 22.1638 75.9008 67.6771 C.3 0 **** -0.106
3138 C28 23.28 76.4911 65.5605 C.ar 0 **** 0.042
3139 C29 23.321 76.8024 64.2124 C.ar 0 **** 0
3140 C30 22.1152 76.7686 63.5292 C.ar 0 **** 0
3141 C31 20.913 76.4595 64.1603 C.ar 0 **** 0
3142 C32 22.0338 77.0872 62.0274 C.ar 0 **** 0
3143 C33 23.3824 77.4304 61.3867 C.3 0 **** -0.106
3144 C34 24.344 78.1026 62.3643 C.3 0 **** -0.106
3145 C35 24.6174 77.1345 63.5133 C.3 0 **** -0.106
3146 C36 19.6531 76.4511 63.3183 C.ar 0 **** -0.1268
3147 C37 19.7136 76.7538 61.9947 C.ar 0 **** 0.0265
3148 C38 20.8531 77.0638 61.3604 C.ar 0 **** -0.1268
3149 C39 14.6371 74.2279 68.1417 C.3 0 **** -0.106
3150 C40 14.9207 74.975 66.8793 C.ar 0 **** 0
3151 C41 16.2652 75.3233 66.7367 C.ar 0 **** 0
3152 C42 16.5769 76.073 65.5832 C.ar 0 **** -0.1268
3153 C43 15.5997 76.4033 64.6212 C.ar 0 **** 0
3154 C44 14.2536 76.0157 64.7911 C.ar 0 **** 0
3155 C45 13.9187 75.2977 65.9502 C.ar 0 **** 0
3156 C46 12.5713 74.9289 66.1555 C.ar 0 **** -0.1268
3157 C47 11.5658 75.2443 65.2544 C.ar 0 **** 0
3158 C48 11.9164 75.9546 64.1211 C.ar 0 **** -0.1268
3159 C49 13.2388 76.3518 63.8623 C.ar 0 **** 0
3160 C50 13.595 77.0837 62.7156 C.ar 0 **** 0.042
3161 C51 14.9052 77.4715 62.5161 C.ar 0 **** -0.1268
3162 C52 15.8901 77.1506 63.4464 C.ar 0 **** -0.1268
3163 O53 17.6776 70.6771 77.1127 O.3 0 **** -0.452
3164 C54 20.4419 71.3217 76.8471 C.3 0 **** -0.159
3165 O55 15.1883 73.1814 70.5949 O.3 0 **** -0.452
3166 C56 10.1554 74.788 65.6115 C.3 0 **** -0.106
3167 C57 9.1476 75.0213 64.4806 C.3 0 **** -0.159
3168 O58 18.5692 76.7413 61.2914 O.3 0 **** -0.4365
3169 O59 24.4806 76.5083 66.2166 O.3 0 **** -0.452
3170 O60 12.7278 77.4613 61.7558 O.3 0 **** -0.452
3171 H61 16.0805 71.3175 75.0578 H 0 **** 0.1268
3172 H62 20.8875 72.4708 74.5175 H 0 **** 0.1268
3173 H63 15.8998 73.2763 72.9425 H 0 **** 0.053
3174 H64 16.224 71.6657 72.1978 H 0 **** 0.053
3175 H65 21.3885 73.806 73.3135 H 0 **** 0.053
3176 H66 21.9855 72.8239 71.9529 H 0 **** 0.053
3177 H67 21.7239 75.9038 72.064 H 0 **** 0.053
3178 H68 23.2475 74.9704 72.247 H 0 **** 0.053
3179 H69 22.9881 75.6931 69.9137 H 0 **** 0.053
3180 H70 22.9092 73.9308 70.0127 H 0 **** 0.053
3181 H71 18.998 75.1387 65.6596 H 0 **** 0.053
3182 H72 22.9408 75.1456 67.8324 H 0 **** 0.053
3183 H73 23.8408 76.4958 61.004 H 0 **** 0.053
3184 H74 23.1835 78.0681 60.5142 H 0 **** 0.053
3185 H75 25.2795 78.3596 61.8523 H 0 **** 0.053
3186 H76 23.9138 79.0416 62.7412 H 0 **** 0.053
3187 H77 25.066 76.2084 63.1289 H 0 **** 0.053
3188 H78 25.3226 77.568 64.2138 H 0 **** 0.053
3189 H79 18.7315 76.1871 63.8006 H 0 **** 0.1268
3190 H80 20.8738 77.2926 60.3064 H 0 **** 0.1268
3191 H81 14.2672 73.2134 67.9243 H 0 **** 0.053
3192 H82 13.9119 74.7744 68.7658 H 0 **** 0.053
3193 H83 17.5523 76.4733 65.3484 H 0 **** 0.1268
3194 H84 12.294 74.3648 67.0649 H 0 **** 0.1268
3195 H85 11.13 76.2084 63.4149 H 0 **** 0.1268
3196 H86 15.2065 78.051 61.628 H 0 **** 0.1268
3197 H87 16.9484 77.5048 63.293 H 0 **** 0.1268
3198 H88 16.7459 70.511 77.0561 H 0 **** 0.41
3199 H89 19.9961 71.3966 77.8457 H 0 **** 0.053
3200 H90 21.2946 72.0144 76.8242 H 0 **** 0.053
3201 H91 20.8229 70.2954 76.7232 H 0 **** 0.053
3202 H92 14.3894 73.2527 70.0913 H 0 **** 0.41
3203 H93 10.1655 73.7201 65.8529 H 0 **** 0.053
3204 H94 8.13603 74.6704 64.7654 H 0 **** 0.053
3205 H95 9.43212 74.4769 63.5597 H 0 **** 0.053
3206 H96 9.05438 76.0947 64.2306 H 0 **** 0.053
3207 H97 17.8518 76.4205 61.8141 H 0 **** 0.41
3208 H98 24.3571 76.3039 67.129 H 0 **** 0.41
3209 H99 11.8571 77.1602 61.9828 H 0 **** 0.41
3210 H100 19.0397 76.8592 66.3302 H 0 **** 0.053
3211 H101 22.4389 76.8179 68.211 H 0 **** 0.053
3212 H102 9.81259 75.3205 66.506 H 0 **** 0.053
3213 C1 29.2842 38.9779 83.4472 C.ar 0 **** 0.042
3214 C2 30.1949 37.9413 83.5341 C.ar 0 **** -0.1268
3215 C3 30.4843 37.1599 82.4277 C.ar 0 **** 0
3216 C4 29.8655 37.3968 81.1994 C.ar 0 **** 0
3217 C5 28.9567 38.4561 81.1186 C.ar 0 **** -0.1268
3218 C6 28.6507 39.2361 82.2238 C.ar 0 **** 0
3219 C7 30.3787 36.4105 80.2609 C.ar 0 **** 0
3220 C8 31.2937 35.6227 80.9372 C.ar 0 **** 0
3221 C9 31.4472 36.0134 82.367 C.3 0 **** -0.106
3222 C10 31.9577 34.5988 80.2705 C.ar 0 **** 0
3223 C11 31.7122 34.352 78.9034 C.ar 0 **** 0
3224 C12 30.756 35.187 78.263 C.ar 0 **** 0
3225 C13 30.0772 36.2082 78.9372 C.ar 0 **** 0
3226 C14 29.0769 37.0643 78.2125 C.3 0 **** -0.106
3227 C15 28.3743 36.2697 77.1114 C.3 0 **** -0.106
3228 C16 29.4247 35.8182 76.1336 C.3 0 **** -0.106
3229 C17 30.466 34.9325 76.7848 C.ar 0 **** 0
3230 C18 31.1119 33.9766 76.0686 C.ar 0 **** 0
3231 C19 32.0565 33.1846 76.6585 C.ar 0 **** 0
3232 C20 32.4 33.3057 78.1953 C.ar 0 **** 0
3233 C21 33.3059 32.4775 78.9717 C.ar 0 **** 0
3234 C22 33.5087 32.8186 80.3134 C.ar 0 **** 0
3235 C23 32.8722 33.8198 80.9605 C.ar 0 **** 0.042
3236 C24 32.7901 32.1496 75.818 C.3 0 **** -0.106
3237 C25 32.5877 32.2342 74.2769 C.ar 0 **** 0
3238 C26 31.6022 33.0304 73.7472 C.ar 0 **** 0
3239 C27 30.7103 33.8722 74.5999 C.3 0 **** -0.106
3240 C28 31.3861 33.066 72.3712 C.ar 0 **** 0.042
3241 C29 32.1322 32.302 71.4906 C.ar 0 **** 0
3242 C30 33.1297 31.5129 72.0423 C.ar 0 **** 0
3243 C31 33.3656 31.4666 73.414 C.ar 0 **** 0
3244 C32 34.0295 30.6266 71.1658 C.ar 0 **** 0
3245 C33 33.721 30.7129 69.6684 C.3 0 **** -0.106
3246 C34 32.2472 30.9941 69.3867 C.3 0 **** -0.106
3247 C35 31.8919 32.3463 70.0005 C.3 0 **** -0.106
3248 C36 34.4824 30.5706 73.91 C.ar 0 **** -0.1268
3249 C37 35.2077 29.8316 73.0297 C.ar 0 **** 0.0265
3250 C38 34.9992 29.8474 71.7057 C.ar 0 **** -0.1268
3251 C39 34.4741 31.9909 81.0777 C.3 0 **** -0.106
3252 C40 34.8066 31.0227 79.9896 C.ar 0 **** 0
3253 C41 34.1474 31.2954 78.7895 C.ar 0 **** 0
3254 C42 34.3904 30.3804 77.744 C.ar 0 **** -0.1268
3255 C43 35.2771 29.2938 77.8941 C.ar 0 **** 0
3256 C44 35.9414 29.0628 79.1176 C.ar 0 **** 0
3257 C45 35.685 29.9444 80.1799 C.ar 0 **** 0
3258 C46 36.3115 29.7111 81.4232 C.ar 0 **** -0.1268
3259 C47 37.1722 28.6457 81.6366 C.ar 0 **** 0
3260 C48 37.4121 27.7899 80.577 C.ar 0 **** -0.1268
3261 C49 36.8175 27.9682 79.3166 C.ar 0 **** 0
3262 C50 37.0473 27.0902 78.2422 C.ar 0 **** 0.042
3263 C51 36.4188 27.2929 77.0295 C.ar 0 **** -0.1268
3264 C52 35.5455 28.3626 76.853 C.ar 0 **** -0.1268
3265 O53 28.995 39.7568 84.5421 O.3 0 **** -0.452
3266 C54 27.6598 40.3838 82.1043 C.3 0 **** -0.159
3267 O55 33.1309 34.0429 82.2609 O.3 0 **** -0.452
3268 C56 37.7622 28.5137 83.0367 C.3 0 **** -0.106
3269 C57 38.8194 27.4151 83.1258 C.3 0 **** -0.159
3270 O58 36.1831 29.0474 73.5173 O.3 0 **** -0.4365
3271 O59 30.418 33.854 71.8103 O.3 0 **** -0.452
3272 O60 37.8586 26.0154 78.3001 O.3 0 **** -0.452
3273 H61 30.7229 37.7081 84.4872 H 0 **** 0.1268
3274 H62 28.4402 38.7452 80.1932 H 0 **** 0.1268
3275 H63 31.1412 35.2229 83.0758 H 0 **** 0.053
3276 H64 32.4646 36.362 82.6231 H 0 **** 0.053
3277 H65 28.3007 37.4275 78.8798 H 0 **** 0.053
3278 H66 29.5763 37.9439 77.7495 H 0 **** 0.053
3279 H67 27.8173 35.4056 77.549 H 0 **** 0.053
3280 H68 27.5985 36.9111 76.5979 H 0 **** 0.053
3281 H69 28.9228 35.2964 75.3095 H 0 **** 0.053
3282 H70 29.9103 36.7093 75.6982 H 0 **** 0.053
3283 H71 33.8774 32.2517 76.0185 H 0 **** 0.053
3284 H72 30.718 34.8886 74.1935 H 0 **** 0.053
3285 H73 34.3416 31.5168 69.2237 H 0 **** 0.053
3286 H74 34.0462 29.7716 69.2076 H 0 **** 0.053
3287 H75 32.0686 31.0081 68.3046 H 0 **** 0.053
3288 H76 31.6159 30.1989 69.8085 H 0 **** 0.053
3289 H77 32.5139 33.1372 69.5595 H 0 **** 0.053
3290 H78 30.8573 32.5962 69.7933 H 0 **** 0.053
3291 H79 34.6809 30.5569 74.9645 H 0 **** 0.1268
3292 H80 35.5959 29.2568 71.0287 H 0 **** 0.1268
3293 H81 35.3694 32.5486 81.3951 H 0 **** 0.053
3294 H82 34.0202 31.4733 81.9378 H 0 **** 0.053
3295 H83 33.9195 30.4088 76.7723 H 0 **** 0.1268
3296 H84 36.1198 30.3976 82.2681 H 0 **** 0.1268
3297 H85 38.0854 26.9529 80.7395 H 0 **** 0.1268
3298 H86 36.5796 26.6153 76.1743 H 0 **** 0.1268
3299 H87 35.0096 28.4975 75.8709 H 0 **** 0.1268
3300 H88 29.5116 39.4432 85.272 H 0 **** 0.41
3301 H89 27.1015 40.5176 83.0382 H 0 **** 0.053
3302 H90 26.9197 40.2068 81.3116 H 0 **** 0.053
3303 H91 28.1848 41.3276 81.8866 H 0 **** 0.053
3304 H92 33.7854 33.4348 82.5754 H 0 **** 0.41
3305 H93 38.2252 29.4638 83.3289 H 0 **** 0.053
3306 H94 39.267 27.3632 84.1359 H 0 **** 0.053
3307 H95 39.63 27.6136 82.4101 H 0 **** 0.053
3308 H96 38.4107 26.4167 82.8963 H 0 **** 0.053
3309 H97 36.3012 29.1859 74.4433 H 0 **** 0.41
3310 H98 29.9534 34.3265 72.4818 H 0 **** 0.41
3311 H99 38.2311 25.9548 79.1698 H 0 **** 0.41
3312 H100 32.3906 31.1605 76.1216 H 0 **** 0.053
3313 H101 29.6892 33.4751 74.5602 H 0 **** 0.053
3314 H102 36.9657 28.3009 83.7581 H 0 **** 0.053
3315 C1 37.9093 27.3626 50.6564 C.ar 0 **** 0.042
3316 C2 37.1441 26.4082 51.3005 C.ar 0 **** -0.1268
3317 C3 37.1972 25.0795 50.9125 C.ar 0 **** 0
3318 C4 38.0214 24.6701 49.8633 C.ar 0 **** 0
3319 C5 38.8013 25.6408 49.2275 C.ar 0 **** -0.1268
3320 C6 38.7458 26.9755 49.6004 C.ar 0 **** 0
3321 C7 37.8413 23.2348 49.7086 C.ar 0 **** 0
3322 C8 36.9341 22.8189 50.6673 C.ar 0 **** 0
3323 C9 36.4362 23.9383 51.5156 C.3 0 **** -0.106
3324 C10 36.5857 21.4759 50.7598 C.ar 0 **** 0
3325 C11 37.1495 20.5239 49.8849 C.ar 0 **** 0
3326 C12 38.0685 21.01 48.915 C.ar 0 **** 0
3327 C13 38.4089 22.3634 48.8128 C.ar 0 **** 0
3328 C14 39.388 22.8251 47.7702 C.3 0 **** -0.106
3329 C15 39.2984 21.9571 46.5149 C.3 0 **** -0.106
3330 C16 39.6404 20.5463 46.9103 C.3 0 **** -0.106
3331 C17 38.6857 19.999 47.9502 C.ar 0 **** 0
3332 C18 38.4179 18.6695 48.017 C.ar 0 **** 0
3333 C19 37.5613 18.1788 48.9619 C.ar 0 **** 0
3334 C20 36.8094 19.129 49.9749 C.ar 0 **** 0
3335 C21 35.8098 18.7629 50.9629 C.ar 0 **** 0
3336 C22 35.3308 19.771 51.8062 C.ar 0 **** 0
3337 C23 35.6784 21.0743 51.7266 C.ar 0 **** 0.042
3338 C24 37.3134 16.6792 49.0346 C.3 0 **** -0.106
3339 C25 38.2525 15.7766 48.1819 C.ar 0 **** 0
3340 C26 39.0716 16.3292 47.2285 C.ar 0 **** 0
3341 C27 39.1355 17.802 46.9865 C.3 0 **** -0.106
3342 C28 39.8712 15.5169 46.4271 C.ar 0 **** 0.042
3343 C29 39.8687 14.1377 46.5449 C.ar 0 **** 0
3344 C30 39.0446 13.5988 47.5206 C.ar 0 **** 0
3345 C31 38.2395 14.3926 48.3336 C.ar 0 **** 0
3346 C32 38.9589 12.0811 47.7503 C.ar 0 **** 0
3347 C33 39.855 11.2556 46.8212 C.3 0 **** -0.106
3348 C34 40.0554 11.9155 45.4587 C.3 0 **** -0.106
3349 C35 40.7392 13.264 45.6733 C.3 0 **** -0.106
3350 C36 37.3754 13.6994 49.3675 C.ar 0 **** -0.1268
3351 C37 37.3887 12.3444 49.4713 C.ar 0 **** 0.0265
3352 C38 38.1442 11.5526 48.6971 C.ar 0 **** -0.1268
3353 C39 34.3463 19.3688 52.8408 C.3 0 **** -0.106
3354 C40 34.2435 17.9265 52.4645 C.ar 0 **** 0
3355 C41 35.0749 17.5757 51.399 C.ar 0 **** 0
3356 C42 34.9791 16.2345 50.973 C.ar 0 **** -0.1268
3357 C43 34.1338 15.306 51.6156 C.ar 0 **** 0
3358 C44 33.3229 15.6941 52.7032 C.ar 0 **** 0
3359 C45 33.38 17.0338 53.1193 C.ar 0 **** 0
3360 C46 32.5519 17.4505 54.1844 C.ar 0 **** -0.1268
3361 C47 31.6869 16.5868 54.839 C.ar 0 **** 0
3362 C48 31.6439 15.2725 54.4117 C.ar 0 **** -0.1268
3363 C49 32.4414 14.7988 53.3566 C.ar 0 **** 0
3364 C50 32.391 13.465 52.9142 C.ar 0 **** 0.042
3365 C51 33.1769 13.0519 51.8566 C.ar 0 **** -0.1268
3366 C52 34.0255 13.9469 51.2106 C.ar 0 **** -0.1268
3367 O53 37.8609 28.6818 51.0393 O.3 0 **** -0.452
3368 C54 39.6086 28.0084 48.8918 C.3 0 **** -0.159
3369 O55 35.1394 21.9615 52.5804 O.3 0 **** -0.452
3370 C56 30.8474 17.179 55.9656 C.3 0 **** -0.106
3371 C57 30.0595 16.1193 56.7439 C.3 0 **** -0.159
3372 O58 36.6018 11.775 50.3991 O.3 0 **** -0.4365
3373 O59 40.6996 16.0352 45.4694 O.3 0 **** -0.452
3374 O60 31.6024 12.5149 53.4537 O.3 0 **** -0.452
3375 H61 36.4707 26.6751 52.1471 H 0 **** 0.1268
3376 H62 39.5042 25.4188 48.4131 H 0 **** 0.1268
3377 H63 35.3495 24.1147 51.4206 H 0 **** 0.053
3378 H64 36.6988 23.8339 52.5844 H 0 **** 0.053
3379 H65 39.1908 23.8468 47.4584 H 0 **** 0.053
3380 H66 40.4285 22.7757 48.1605 H 0 **** 0.053
3381 H67 38.2777 22.0255 46.0654 H 0 **** 0.053
3382 H68 40.0115 22.3353 45.7239 H 0 **** 0.053
3383 H69 39.635 19.9269 46.005 H 0 **** 0.053
3384 H70 40.6723 20.5284 47.3031 H 0 **** 0.053
3385 H71 37.4185 16.3645 50.0941 H 0 **** 0.053
3386 H72 40.1893 18.0986 46.9977 H 0 **** 0.053
3387 H73 40.84 11.1177 47.3116 H 0 **** 0.053
3388 H74 39.4026 10.2593 46.7232 H 0 **** 0.053
3389 H75 40.6722 11.2741 44.8174 H 0 **** 0.053
3390 H76 39.0897 12.0468 44.9496 H 0 **** 0.053
3391 H77 41.7123 13.1231 46.164 H 0 **** 0.053
3392 H78 40.9254 13.7496 44.7216 H 0 **** 0.053
3393 H79 36.7748 14.3147 50.0097 H 0 **** 0.1268
3394 H80 38.1384 10.4794 48.8046 H 0 **** 0.1268
3395 H81 34.7254 19.4821 53.8687 H 0 **** 0.053
3396 H82 33.3719 19.8722 52.7342 H 0 **** 0.053
3397 H83 35.5046 15.8134 50.1283 H 0 **** 0.1268
3398 H84 32.586 18.5037 54.5194 H 0 **** 0.1268
3399 H85 30.9632 14.5933 54.9184 H 0 **** 0.1268
3400 H86 33.1481 12.0137 51.4868 H 0 **** 0.1268
3401 H87 34.6337 13.6094 50.3242 H 0 **** 0.1268
3402 H88 37.2507 28.7562 51.7606 H 0 **** 0.41
3403 H89 39.1007 28.979 48.8482 H 0 **** 0.053
3404 H90 39.8311 27.7168 47.856 H 0 **** 0.053
3405 H91 40.5613 28.1494 49.4268 H 0 **** 0.053
3406 H92 34.5386 21.5313 53.1723 H 0 **** 0.41
3407 H93 31.498 17.7125 56.6663 H 0 **** 0.053
3408 H94 29.469 16.5779 57.5614 H 0 **** 0.053
3409 H95 30.729 15.3703 57.2086 H 0 **** 0.053
3410 H96 29.3427 15.5832 56.0944 H 0 **** 0.053
3411 H97 36.181 12.4284 50.9347 H 0 **** 0.41
3412 H98 40.6396 16.9767 45.4605 H 0 **** 0.41
3413 H99 31.0886 12.8926 54.1559 H 0 **** 0.41
3414 H100 36.2908 16.5126 48.6386 H 0 **** 0.053
3415 H101 38.7071 18.028 46.0032 H 0 **** 0.053
3416 H102 30.144 17.9116 55.5537 H 0 **** 0.053
3417 C1 45.687 32.1215 95.9502 C.ar 0 **** 0.042
3418 C2 45.3854 31.3211 94.8642 C.ar 0 **** -0.1268
3419 C3 45.0975 31.882 93.6308 C.ar 0 **** 0
3420 C4 45.1029 33.2662 93.4521 C.ar 0 **** 0
3421 C5 45.4223 34.0662 94.5532 C.ar 0 **** -0.1268
3422 C6 45.6997 33.5147 95.7951 C.ar 0 **** 0
3423 C7 44.7583 33.523 92.0621 C.ar 0 **** 0
3424 C8 44.5705 32.2999 91.4426 C.ar 0 **** 0
3425 C9 44.7605 31.1481 92.3687 C.3 0 **** -0.106
3426 C10 44.2454 32.2466 90.0917 C.ar 0 **** 0
3427 C11 44.1049 33.4304 89.3376 C.ar 0 **** 0
3428 C12 44.3007 34.6574 90.0286 C.ar 0 **** 0
3429 C13 44.6145 34.7118 91.3912 C.ar 0 **** 0
3430 C14 44.8134 36.036 92.0736 C.3 0 **** -0.106
3431 C15 43.9303 37.1132 91.4434 C.3 0 **** -0.106
3432 C16 44.333 37.2464 89.9999 C.3 0 **** -0.106
3433 C17 44.1452 35.9534 89.2349 C.ar 0 **** 0
3434 C18 43.8704 35.9661 87.9052 C.ar 0 **** 0
3435 C19 43.7092 34.7967 87.2169 C.ar 0 **** 0
3436 C20 43.7813 33.3929 87.9366 C.ar 0 **** 0
3437 C21 43.5407 32.0835 87.3568 C.ar 0 **** 0
3438 C22 43.7343 30.9655 88.1752 C.ar 0 **** 0
3439 C23 44.0638 31.0147 89.4848 C.ar 0 **** 0.042
3440 C24 43.4413 34.8451 85.7198 C.3 0 **** -0.106
3441 C25 43.6172 36.2274 85.0259 C.ar 0 **** 0
3442 C26 43.7485 37.3705 85.7752 C.ar 0 **** 0
3443 C27 43.7673 37.3493 87.2687 C.3 0 **** -0.106
3444 C28 43.8524 38.6138 85.1551 C.ar 0 **** 0.042
3445 C29 43.814 38.7534 83.7784 C.ar 0 **** 0
3446 C30 43.6926 37.5875 83.0383 C.ar 0 **** 0
3447 C31 43.5921 36.3347 83.638 C.ar 0 **** 0
3448 C32 43.6466 37.6128 81.5019 C.ar 0 **** 0
3449 C33 43.7502 39.016 80.8959 C.3 0 **** -0.106
3450 C34 43.151 40.0923 81.7985 C.3 0 **** -0.106
3451 C35 43.9269 40.1044 83.1136 C.3 0 **** -0.106
3452 C36 43.4633 35.1253 82.7342 C.ar 0 **** -0.1268
3453 C37 43.4329 35.2813 81.3844 C.ar 0 **** 0.0265
3454 C38 43.5181 36.4735 80.7775 C.ar 0 **** -0.1268
3455 C39 43.5305 29.6345 87.5523 C.3 0 **** -0.106
3456 C40 43.1159 30.1129 86.1992 C.ar 0 **** 0
3457 C41 43.1221 31.504 86.0808 C.ar 0 **** 0
3458 C42 42.6909 32.0077 84.8359 C.ar 0 **** -0.1268
3459 C43 42.3272 31.1564 83.7721 C.ar 0 **** 0
3460 C44 42.3606 29.7541 83.9225 C.ar 0 **** 0
3461 C45 42.7478 29.2348 85.1682 C.ar 0 **** 0
3462 C46 42.7489 27.8347 85.3531 C.ar 0 **** -0.1268
3463 C47 42.3939 26.9502 84.3475 C.ar 0 **** 0
3464 C48 42.0352 27.4817 83.1232 C.ar 0 **** -0.1268
3465 C49 41.9933 28.8663 82.8827 C.ar 0 **** 0
3466 C50 41.5757 29.4095 81.6532 C.ar 0 **** 0.042
3467 C51 41.534 30.7774 81.4739 C.ar 0 **** -0.1268
3468 C52 41.8964 31.639 82.5052 C.ar 0 **** -0.1268
3469 O53 45.9754 31.5709 97.1759 O.3 0 **** -0.452
3470 C54 46.0465 34.4109 96.974 C.3 0 **** -0.159
3471 O55 44.2072 29.8727 90.1793 O.3 0 **** -0.452
3472 C56 42.4248 25.4652 84.6906 C.3 0 **** -0.106
3473 C57 42.1738 24.5648 83.4757 C.3 0 **** -0.159
3474 O58 43.3104 34.1806 80.6245 O.3 0 **** -0.4365
3475 O59 43.9915 39.7711 85.8716 O.3 0 **** -0.452
3476 O60 41.1885 28.6762 80.5902 O.3 0 **** -0.452
3477 H61 45.3679 30.2103 94.9467 H 0 **** 0.1268
3478 H62 45.4839 35.1622 94.5114 H 0 **** 0.1268
3479 H63 43.8469 30.5434 92.5138 H 0 **** 0.053
3480 H64 45.598 30.4851 92.0837 H 0 **** 0.053
3481 H65 44.5473 35.9896 93.1257 H 0 **** 0.053
3482 H66 45.8748 36.3603 91.9978 H 0 **** 0.053
3483 H67 42.851 36.8439 91.5492 H 0 **** 0.053
3484 H68 44.0596 38.0952 91.9874 H 0 **** 0.053
3485 H69 43.7442 38.0576 89.5544 H 0 **** 0.053
3486 H70 45.3914 37.5582 89.9546 H 0 **** 0.053
3487 H71 44.132 34.1315 85.2234 H 0 **** 0.053
3488 H72 44.64 37.9201 87.6019 H 0 **** 0.053
3489 H73 44.8198 39.2443 80.7117 H 0 **** 0.053
3490 H74 43.256 38.9918 79.9147 H 0 **** 0.053
3491 H75 43.2172 41.0715 81.3083 H 0 **** 0.053
3492 H76 42.0848 39.8927 81.9776 H 0 **** 0.053
3493 H77 44.9864 40.3251 82.9257 H 0 **** 0.053
3494 H78 43.5474 40.8798 83.7697 H 0 **** 0.053
3495 H79 43.4122 34.1587 83.1971 H 0 **** 0.1268
3496 H80 43.4985 36.5679 79.703 H 0 **** 0.1268
3497 H81 44.4536 29.0364 87.4929 H 0 **** 0.053
3498 H82 42.7251 29.05 88.0252 H 0 **** 0.053
3499 H83 42.5786 33.0545 84.5952 H 0 **** 0.1268
3500 H84 43.0504 27.4141 86.3294 H 0 **** 0.1268
3501 H85 41.7417 26.79 82.3373 H 0 **** 0.1268
3502 H86 41.2112 31.2242 80.5191 H 0 **** 0.1268
3503 H87 41.8311 32.7539 82.3577 H 0 **** 0.1268
3504 H88 45.915 30.6283 97.1014 H 0 **** 0.41
3505 H89 45.6869 33.9773 97.9145 H 0 **** 0.053
3506 H90 45.587 35.4051 96.8836 H 0 **** 0.053
3507 H91 47.1379 34.5373 97.0559 H 0 **** 0.053
3508 H92 44.0435 29.1239 89.6231 H 0 **** 0.41
3509 H93 43.4003 25.2105 85.1162 H 0 **** 0.053
3510 H94 42.2209 23.4933 83.7541 H 0 **** 0.053
3511 H95 42.93 24.7263 82.6836 H 0 **** 0.053
3512 H96 41.1732 24.7372 83.0371 H 0 **** 0.053
3513 H97 43.3496 33.3972 81.1491 H 0 **** 0.41
3514 H98 43.9961 39.5842 86.7964 H 0 **** 0.41
3515 H99 41.2484 27.7555 80.8077 H 0 **** 0.41
3516 H100 42.3748 34.5722 85.5845 H 0 **** 0.053
3517 H101 42.857 37.8258 87.6505 H 0 **** 0.053
3518 H102 41.6692 25.2465 85.4537 H 0 **** 0.053
3519 C1 61.9371 36.8898 22.962 C.ar 0 **** 0.042
3520 C2 62.4301 36.081 21.9551 C.ar 0 **** -0.1268
3521 C3 63.7275 35.5986 22.0071 C.ar 0 **** 0
3522 C4 64.5696 35.9159 23.0739 C.ar 0 **** 0
3523 C5 64.0568 36.723 24.0939 C.ar 0 **** -0.1268
3524 C6 62.7634 37.2212 24.0447 C.ar 0 **** 0
3525 C7 65.8463 35.2645 22.8237 C.ar 0 **** 0
3526 C8 65.7369 34.5677 21.6331 C.ar 0 **** 0
3527 C9 64.3956 34.7126 21.0002 C.3 0 **** -0.106
3528 C10 66.8158 33.8315 21.1558 C.ar 0 **** 0
3529 C11 68.0285 33.7827 21.8746 C.ar 0 **** 0
3530 C12 68.0857 34.5248 23.086 C.ar 0 **** 0
3531 C13 67.0049 35.2768 23.5596 C.ar 0 **** 0
3532 C14 67.1169 36.0418 24.8483 C.3 0 **** -0.106
3533 C15 68.5493 36.5273 25.0721 C.3 0 **** -0.106
3534 C16 69.4352 35.3138 25.15 C.3 0 **** -0.106
3535 C17 69.392 34.4947 23.8774 C.ar 0 **** 0
3536 C18 70.4658 33.7618 23.4855 C.ar 0 **** 0
3537 C19 70.4198 33.0177 22.3402 C.ar 0 **** 0
3538 C20 69.1499 33.016 21.4015 C.ar 0 **** 0
3539 C21 68.9935 32.3527 20.1191 C.ar 0 **** 0
3540 C22 67.7437 32.4318 19.4956 C.ar 0 **** 0
3541 C23 66.6902 33.1368 19.9638 C.ar 0 **** 0.042
3542 C24 71.6258 32.1758 21.9505 C.3 0 **** -0.106
3543 C25 72.7452 32.0266 23.0218 C.ar 0 **** 0
3544 C26 72.7493 32.8237 24.1399 C.ar 0 **** 0
3545 C27 71.6811 33.8334 24.4055 C.3 0 **** -0.106
3546 C28 73.7797 32.7271 25.0726 C.ar 0 **** 0.042
3547 C29 74.8369 31.8484 24.9108 C.ar 0 **** 0
3548 C30 74.8096 31.0439 23.7822 C.ar 0 **** 0
3549 C31 73.787 31.121 22.8403 C.ar 0 **** 0
3550 C32 75.9231 30.0231 23.4966 C.ar 0 **** 0
3551 C33 77.0269 29.9879 24.5585 C.3 0 **** -0.106
3552 C34 77.245 31.3444 25.2254 C.3 0 **** -0.106
3553 C35 75.9502 31.7498 25.9261 C.3 0 **** -0.106
3554 C36 73.8559 30.195 21.6429 C.ar 0 **** -0.1268
3555 C37 74.8993 29.3355 21.503 C.ar 0 **** 0.0265
3556 C38 75.9024 29.243 22.3874 C.ar 0 **** -0.1268
3557 C39 67.5882 31.7079 18.21 C.3 0 **** -0.106
3558 C40 68.9886 31.1989 18.1006 C.ar 0 **** 0
3559 C41 69.7917 31.5605 19.1841 C.ar 0 **** 0
3560 C42 71.1373 31.1447 19.1056 C.ar 0 **** -0.1268
3561 C43 71.6183 30.3749 18.0261 C.ar 0 **** 0
3562 C44 70.7704 30.013 16.9579 C.ar 0 **** 0
3563 C45 69.436 30.447 17.0027 C.ar 0 **** 0
3564 C46 68.5792 30.1226 15.9283 C.ar 0 **** -0.1268
3565 C47 69.0031 29.3875 14.8318 C.ar 0 **** 0
3566 C48 70.3218 28.9725 14.8057 C.ar 0 **** -0.1268
3567 C49 71.2227 29.2662 15.843 C.ar 0 **** 0
3568 C50 72.5669 28.8545 15.8126 C.ar 0 **** 0.042
3569 C51 73.4202 29.185 16.8468 C.ar 0 **** -0.1268
3570 C52 72.9666 29.9335 17.9295 C.ar 0 **** -0.1268
3571 O53 60.65 37.3697 22.9152 O.3 0 **** -0.452
3572 C54 62.2325 38.0945 25.1711 C.3 0 **** -0.159
3573 O55 65.5401 33.1581 19.2682 O.3 0 **** -0.452
3574 C56 67.9697 29.1201 13.743 C.3 0 **** -0.106
3575 C57 68.4743 28.1556 12.6639 C.3 0 **** -0.159
3576 O58 74.922 28.5422 20.4194 O.3 0 **** -0.4365
3577 O59 73.8104 33.5007 26.2008 O.3 0 **** -0.452
3578 O60 73.1197 28.1391 14.8136 O.3 0 **** -0.452
3579 H61 61.803 35.791 21.0809 H 0 **** 0.1268
3580 H62 64.6254 37.0045 24.9908 H 0 **** 0.1268
3581 H63 64.4241 35.212 20.0148 H 0 **** 0.053
3582 H64 63.8428 33.7591 20.9121 H 0 **** 0.053
3583 H65 66.484 36.9245 24.8481 H 0 **** 0.053
3584 H66 66.8216 35.4033 25.7101 H 0 **** 0.053
3585 H67 68.8612 37.216 24.2494 H 0 **** 0.053
3586 H68 68.6147 37.1325 26.0243 H 0 **** 0.053
3587 H69 70.4563 35.6496 25.3689 H 0 **** 0.053
3588 H70 69.1131 34.6942 26.0056 H 0 **** 0.053
3589 H71 71.2665 31.1558 21.6987 H 0 **** 0.053
3590 H72 71.3185 33.6778 25.4267 H 0 **** 0.053
3591 H73 76.7534 29.2388 25.3294 H 0 **** 0.053
3592 H74 77.9438 29.6254 24.0732 H 0 **** 0.053
3593 H75 78.0654 31.2775 25.9506 H 0 **** 0.053
3594 H76 77.5351 32.097 24.4783 H 0 **** 0.053
3595 H77 75.6804 31.0021 26.6843 H 0 **** 0.053
3596 H78 76.0777 32.6969 26.4383 H 0 **** 0.053
3597 H79 73.053 30.2364 20.9323 H 0 **** 0.1268
3598 H80 76.7147 28.5453 22.2563 H 0 **** 0.1268
3599 H81 66.8693 30.875 18.2639 H 0 **** 0.053
3600 H82 67.3446 32.3695 17.3634 H 0 **** 0.053
3601 H83 71.9049 31.3862 19.8261 H 0 **** 0.1268
3602 H84 67.5263 30.4589 15.9506 H 0 **** 0.1268
3603 H85 70.659 28.4 13.9454 H 0 **** 0.1268
3604 H86 74.4785 28.8767 16.8419 H 0 **** 0.1268
3605 H87 73.6801 30.2304 18.7491 H 0 **** 0.1268
3606 H88 60.2433 37.0454 22.1232 H 0 **** 0.41
3607 H89 61.5222 38.8371 24.7892 H 0 **** 0.053
3608 H90 63.0363 38.6495 25.6745 H 0 **** 0.053
3609 H91 61.7089 37.4816 25.9222 H 0 **** 0.053
3610 H92 65.6174 32.634 18.4831 H 0 **** 0.41
3611 H93 67.0651 28.6965 14.1915 H 0 **** 0.053
3612 H94 67.6987 27.973 11.894 H 0 **** 0.053
3613 H95 68.7461 27.1706 13.0896 H 0 **** 0.053
3614 H96 69.359 28.5582 12.1362 H 0 **** 0.053
3615 H97 74.1203 28.6148 19.9267 H 0 **** 0.41
3616 H98 73.0626 34.0754 26.224 H 0 **** 0.41
3617 H99 72.4629 27.9609 14.1523 H 0 **** 0.41
3618 H100 72.0991 32.6876 21.0878 H 0 **** 0.053
3619 H101 72.1046 34.841 24.3224 H 0 **** 0.053
3620 H102 67.6846 30.0652 13.2668 H 0 **** 0.053
3621 C1 60.9258 31.1812 52.4746 C.ar 0 **** 0.042
3622 C2 60.0224 31.186 53.5211 C.ar 0 **** -0.1268
3623 C3 58.7441 30.6796 53.354 C.ar 0 **** 0
3624 C4 58.3346 30.1535 52.128 C.ar 0 **** 0
3625 C5 59.26 30.141 51.08 C.ar 0 **** -0.1268
3626 C6 60.538 30.6572 51.2337 C.ar 0 **** 0
3627 C7 56.9553 29.7179 52.2849 C.ar 0 **** 0
3628 C8 56.5785 29.9768 53.5911 C.ar 0 **** 0
3629 C9 57.6643 30.6111 54.3906 C.3 0 **** -0.106
3630 C10 55.3011 29.6415 54.0265 C.ar 0 **** 0
3631 C11 54.3776 29.0348 53.1496 C.ar 0 **** 0
3632 C12 54.8172 28.8008 51.8179 C.ar 0 **** 0
3633 C13 56.0979 29.1504 51.3756 C.ar 0 **** 0
3634 C14 56.5135 28.8787 49.9572 C.3 0 **** -0.106
3635 C15 55.3181 28.9787 49.0094 C.3 0 **** -0.106
3636 C16 54.3154 27.9383 49.4285 C.3 0 **** -0.106
3637 C17 53.8316 28.1525 50.8471 C.ar 0 **** 0
3638 C18 52.5859 27.7643 51.223 C.ar 0 **** 0
3639 C19 52.156 27.9525 52.5065 C.ar 0 **** 0
3640 C20 53.0568 28.67 53.5872 C.ar 0 **** 0
3641 C21 52.7011 29.0181 54.9516 C.ar 0 **** 0
3642 C22 53.6934 29.5892 55.7555 C.ar 0 **** 0
3643 C23 54.9396 29.9037 55.3379 C.ar 0 **** 0.042
3644 C24 50.7689 27.4702 52.9051 C.3 0 **** -0.106
3645 C25 50.0251 26.566 51.8793 C.ar 0 **** 0
3646 C26 50.4945 26.4389 50.5951 C.ar 0 **** 0
3647 C27 51.7411 27.1175 50.129 C.3 0 **** -0.106
3648 C28 49.8001 25.6723 49.6615 C.ar 0 **** 0.042
3649 C29 48.6167 25.0265 49.9759 C.ar 0 **** 0
3650 C30 48.1646 25.1567 51.2799 C.ar 0 **** 0
3651 C31 48.8458 25.9138 52.2296 C.ar 0 **** 0
3652 C32 46.8674 24.4797 51.7511 C.ar 0 **** 0
3653 C33 46.1534 23.6691 50.6648 C.3 0 **** -0.106
3654 C34 46.374 24.2397 49.2655 C.3 0 **** -0.106
3655 C35 47.8693 24.198 48.9585 C.3 0 **** -0.106
3656 C36 48.2624 25.9886 53.6264 C.ar 0 **** -0.1268
3657 C37 47.1023 25.3434 53.918 C.ar 0 **** 0.0265
3658 C38 46.4193 24.6151 53.0238 C.ar 0 **** -0.1268
3659 C39 53.3261 29.8935 57.1604 C.3 0 **** -0.106
3660 C40 51.8974 29.4625 57.0878 C.ar 0 **** 0
3661 C41 51.5369 28.9617 55.8353 C.ar 0 **** 0
3662 C42 50.1842 28.5857 55.7003 C.ar 0 **** -0.1268
3663 C43 49.2755 28.6687 56.776 C.ar 0 **** 0
3664 C44 49.6829 29.1621 58.0337 C.ar 0 **** 0
3665 C45 51.0179 29.5727 58.1767 C.ar 0 **** 0
3666 C46 51.4376 30.1001 59.4173 C.ar 0 **** -0.1268
3667 C47 50.5835 30.2244 60.5024 C.ar 0 **** 0
3668 C48 49.2722 29.8173 60.3395 C.ar 0 **** -0.1268
3669 C49 48.7946 29.2869 59.1295 C.ar 0 **** 0
3670 C50 47.4585 28.8824 58.959 C.ar 0 **** 0.042
3671 C51 47.0301 28.388 57.7429 C.ar 0 **** -0.1268
3672 C52 47.9093 28.2881 56.6679 C.ar 0 **** -0.1268
3673 O53 62.1962 31.6803 52.6367 O.3 0 **** -0.452
3674 C54 61.5238 30.6272 50.0758 C.3 0 **** -0.159
3675 O55 55.8077 30.4674 56.1959 O.3 0 **** -0.452
3676 C56 51.1737 30.8187 61.7765 C.3 0 **** -0.106
3677 C57 50.2123 30.7515 62.9683 C.3 0 **** -0.159
3678 O58 46.62 25.4454 55.1676 O.3 0 **** -0.4365
3679 O59 50.2444 25.5187 48.3763 O.3 0 **** -0.452
3680 O60 46.5173 28.9449 59.9213 O.3 0 **** -0.452
3681 H61 60.2937 31.5898 54.5236 H 0 **** 0.1268
3682 H62 59.0482 29.7225 50.0867 H 0 **** 0.1268
3683 H63 57.4144 31.627 54.7464 H 0 **** 0.053
3684 H64 58.0012 29.9959 55.2452 H 0 **** 0.053
3685 H65 57.249 29.5984 49.6095 H 0 **** 0.053
3686 H66 56.9529 27.861 49.8656 H 0 **** 0.053
3687 H67 54.8834 30.0077 49.0375 H 0 **** 0.053
3688 H68 55.6477 28.8102 47.9418 H 0 **** 0.053
3689 H69 53.4794 27.964 48.7187 H 0 **** 0.053
3690 H70 54.7804 26.9409 49.338 H 0 **** 0.053
3691 H71 50.863 26.8957 53.8506 H 0 **** 0.053
3692 H72 52.3705 26.3661 49.6415 H 0 **** 0.053
3693 H73 46.526 22.6251 50.6995 H 0 **** 0.053
3694 H74 45.0859 23.6354 50.923 H 0 **** 0.053
3695 H75 45.8171 23.6486 48.5279 H 0 **** 0.053
3696 H76 45.9937 25.2696 49.2071 H 0 **** 0.053
3697 H77 48.2352 23.1631 48.9994 H 0 **** 0.053
3698 H78 48.0608 24.5686 47.9577 H 0 **** 0.053
3699 H79 48.8025 26.551 54.3639 H 0 **** 0.1268
3700 H80 45.5042 24.1068 53.2824 H 0 **** 0.1268
3701 H81 53.8823 29.2909 57.8957 H 0 **** 0.053
3702 H82 53.4001 30.9645 57.4084 H 0 **** 0.053
3703 H83 49.7254 28.2358 54.7871 H 0 **** 0.1268
3704 H84 52.4857 30.4286 59.5427 H 0 **** 0.1268
3705 H85 48.598 29.9181 61.1863 H 0 **** 0.1268
3706 H86 45.9861 28.0711 57.5844 H 0 **** 0.1268
3707 H87 47.54 27.9197 55.6694 H 0 **** 0.1268
3708 H88 62.2786 31.9901 53.5285 H 0 **** 0.41
3709 H89 62.1918 31.4959 50.1081 H 0 **** 0.053
3710 H90 61.0148 30.651 49.1023 H 0 **** 0.053
3711 H91 62.1471 29.7199 50.1216 H 0 **** 0.053
3712 H92 55.4051 30.5831 57.0454 H 0 **** 0.41
3713 H93 52.0916 30.2832 62.0402 H 0 **** 0.053
3714 H94 50.6725 31.1804 63.8803 H 0 **** 0.053
3715 H95 49.9292 29.7086 63.2079 H 0 **** 0.053
3716 H96 49.2854 31.3245 62.7791 H 0 **** 0.053
3717 H97 47.2257 25.9007 55.7307 H 0 **** 0.41
3718 H98 51.0442 26.0028 48.2487 H 0 **** 0.41
3719 H99 46.899 29.3038 60.7123 H 0 **** 0.41
3720 H100 50.1428 28.3787 53.0178 H 0 **** 0.053
3721 H101 51.4811 27.8968 49.4032 H 0 **** 0.053
3722 H102 51.4468 31.8656 61.6013 H 0 **** 0.053
3723 C1 46.2375 27.9497 5.26368 C.ar 0 **** 0.042
3724 C2 45.5366 26.7673 5.41118 C.ar 0 **** -0.1268
3725 C3 44.1646 26.7776 5.60149 C.ar 0 **** 0
3726 C4 43.4553 27.9785 5.65177 C.ar 0 **** 0
3727 C5 44.172 29.1682 5.49069 C.ar 0 **** -0.1268
3728 C6 45.5473 29.1689 5.31197 C.ar 0 **** 0
3729 C7 42.0552 27.6438 5.86408 C.ar 0 **** 0
3730 C8 41.9565 26.2646 5.92095 C.ar 0 **** 0
3731 C9 43.2734 25.5843 5.76609 C.3 0 **** -0.106
3732 C10 40.7162 25.6622 6.10098 C.ar 0 **** 0
3733 C11 39.548 26.443 6.22605 C.ar 0 **** 0
3734 C12 39.7111 27.8543 6.16896 C.ar 0 **** 0
3735 C13 40.9609 28.461 6.00108 C.ar 0 **** 0
3736 C14 41.078 29.9582 5.94498 C.3 0 **** -0.106
3737 C15 40.0101 30.6224 6.81473 C.3 0 **** -0.106
3738 C16 38.6652 30.2211 6.2727 C.3 0 **** -0.106
3739 C17 38.4612 28.7214 6.31054 C.ar 0 **** 0
3740 C18 37.218 28.1925 6.44599 C.ar 0 **** 0
3741 C19 37.0373 26.8383 6.47224 C.ar 0 **** 0
3742 C20 38.2556 25.8358 6.40016 C.ar 0 **** 0
3743 C21 38.2234 24.3878 6.50844 C.ar 0 **** 0
3744 C22 39.4285 23.6973 6.34057 C.ar 0 **** 0
3745 C23 40.6329 24.2803 6.1517 C.ar 0 **** 0.042
3746 C24 35.6273 26.2778 6.58563 C.3 0 **** -0.106
3747 C25 34.4597 27.2928 6.41462 C.ar 0 **** 0
3748 C26 34.7043 28.6437 6.42671 C.ar 0 **** 0
3749 C27 36.082 29.2054 6.55541 C.3 0 **** -0.106
3750 C28 33.6528 29.5527 6.33621 C.ar 0 **** 0.042
3751 C29 32.335 29.1435 6.22922 C.ar 0 **** 0
3752 C30 32.1085 27.7761 6.20613 C.ar 0 **** 0
3753 C31 33.1444 26.8506 6.30078 C.ar 0 **** 0
3754 C32 30.6881 27.1993 6.09296 C.ar 0 **** 0
3755 C33 29.5871 28.2606 6.00359 C.3 0 **** -0.106
3756 C34 29.9447 29.5439 6.75031 C.3 0 **** -0.106
3757 C35 31.2022 30.135 6.1171 C.3 0 **** -0.106
3758 C36 32.7843 25.379 6.26988 C.ar 0 **** -0.1268
3759 C37 31.4842 24.9957 6.16915 C.ar 0 **** 0.0265
3760 C38 30.4645 25.8616 6.08523 C.ar 0 **** -0.1268
3761 C39 39.3681 22.2163 6.4063 C.3 0 **** -0.106
3762 C40 37.9092 22.0921 6.70361 C.ar 0 **** 0
3763 C41 37.2527 23.3231 6.76041 C.ar 0 **** 0
3764 C42 35.8817 23.2634 7.08627 C.ar 0 **** -0.1268
3765 C43 35.2166 22.0368 7.29267 C.ar 0 **** 0
3766 C44 35.9106 20.8111 7.20683 C.ar 0 **** 0
3767 C45 37.2836 20.8533 6.91647 C.ar 0 **** 0
3768 C46 38.0036 19.64 6.85878 C.ar 0 **** -0.1268
3769 C47 37.4066 18.4071 7.07326 C.ar 0 **** 0
3770 C48 36.0543 18.3881 7.36078 C.ar 0 **** -0.1268
3771 C49 35.285 19.5613 7.43445 C.ar 0 **** 0
3772 C50 33.912 19.5443 7.73786 C.ar 0 **** 0.042
3773 C51 33.2026 20.7261 7.82161 C.ar 0 **** -0.1268
3774 C52 33.8339 21.9495 7.61389 C.ar 0 **** -0.1268
3775 O53 47.5974 27.9441 5.06542 O.3 0 **** -0.452
3776 C54 46.2991 30.4795 5.13853 C.3 0 **** -0.159
3777 O55 41.7303 23.5149 6.01904 O.3 0 **** -0.452
3778 C56 38.3104 17.1819 6.98691 C.3 0 **** -0.106
3779 C57 37.5352 15.8617 7.05881 C.3 0 **** -0.159
3780 O58 31.2131 23.6803 6.15497 O.3 0 **** -0.4365
3781 O59 33.8615 30.9047 6.34596 O.3 0 **** -0.452
3782 O60 33.1991 18.4251 7.97069 O.3 0 **** -0.452
3783 H61 46.0485 25.7782 5.37792 H 0 **** 0.1268
3784 H62 43.7059 30.1632 5.48528 H 0 **** 0.1268
3785 H63 43.577 25.0032 6.65563 H 0 **** 0.053
3786 H64 43.3358 24.941 4.86906 H 0 **** 0.053
3787 H65 42.0401 30.3001 6.31577 H 0 **** 0.053
3788 H66 40.9593 30.3221 4.90055 H 0 **** 0.053
3789 H67 40.1334 30.3194 7.88323 H 0 **** 0.053
3790 H68 40.1307 31.746 6.79566 H 0 **** 0.053
3791 H69 37.8939 30.7397 6.85519 H 0 **** 0.053
3792 H70 38.579 30.585 5.2337 H 0 **** 0.053
3793 H71 35.5053 25.4928 5.80984 H 0 **** 0.053
3794 H72 36.225 29.9356 5.75272 H 0 **** 0.053
3795 H73 29.4073 28.4951 4.93456 H 0 **** 0.053
3796 H74 28.6616 27.8132 6.39189 H 0 **** 0.053
3797 H75 29.1143 30.258 6.68647 H 0 **** 0.053
3798 H76 30.1086 29.3342 7.81709 H 0 **** 0.053
3799 H77 31.023 30.359 5.05658 H 0 **** 0.053
3800 H78 31.4682 31.0672 6.60272 H 0 **** 0.053
3801 H79 33.5858 24.6669 6.31653 H 0 **** 0.1268
3802 H80 29.4417 25.5294 5.99893 H 0 **** 0.1268
3803 H81 39.6181 21.7278 5.45132 H 0 **** 0.053
3804 H82 39.9719 21.7907 7.22384 H 0 **** 0.053
3805 H83 35.2398 24.1204 7.22906 H 0 **** 0.1268
3806 H84 39.0855 19.6592 6.63276 H 0 **** 0.1268
3807 H85 35.5832 17.424 7.53491 H 0 **** 0.1268
3808 H86 32.1271 20.7369 8.06382 H 0 **** 0.1268
3809 H87 33.2538 22.9091 7.72205 H 0 **** 0.1268
3810 H88 47.8968 27.0455 5.08953 H 0 **** 0.41
3811 H89 47.3049 30.4146 5.57028 H 0 **** 0.053
3812 H90 45.7901 31.3148 5.63943 H 0 **** 0.053
3813 H91 46.4056 30.7286 4.07067 H 0 **** 0.053
3814 H92 41.5028 22.5978 6.08535 H 0 **** 0.41
3815 H93 38.8703 17.2049 6.04638 H 0 **** 0.053
3816 H94 38.2163 14.9911 6.98284 H 0 **** 0.053
3817 H95 36.8013 15.772 6.23491 H 0 **** 0.053
3818 H96 36.991 15.7583 8.01621 H 0 **** 0.053
3819 H97 32.0053 23.1682 6.12362 H 0 **** 0.41
3820 H98 34.7837 31.0941 6.40294 H 0 **** 0.41
3821 H99 33.7666 17.668 7.90128 H 0 **** 0.41
3822 H100 35.532 25.8783 7.61602 H 0 **** 0.053
3823 H101 36.1791 29.7115 7.52158 H 0 **** 0.053
3824 H102 39.0423 17.2069 7.80231 H 0 **** 0.053
3825 C1 24.8631 17.7602 52.9869 C.ar 0 **** 0.042
3826 C2 25.2492 18.2036 54.2381 C.ar 0 **** -0.1268
3827 C3 24.5175 19.1754 54.9004 C.ar 0 **** 0
3828 C4 23.3753 19.7325 54.3235 C.ar 0 **** 0
3829 C5 22.9863 19.268 53.0635 C.ar 0 **** -0.1268
3830 C6 23.7191 18.3044 52.387 C.ar 0 **** 0
3831 C7 22.8519 20.7126 55.2628 C.ar 0 **** 0
3832 C8 23.6751 20.7102 56.3752 C.ar 0 **** 0
3833 C9 24.8058 19.7469 56.2552 C.3 0 **** -0.106
3834 C10 23.3968 21.5488 57.4489 C.ar 0 **** 0
3835 C11 22.2775 22.407 57.4209 C.ar 0 **** 0
3836 C12 21.4729 22.3729 56.2492 C.ar 0 **** 0
3837 C13 21.7604 21.5389 55.1629 C.ar 0 **** 0
3838 C14 20.8755 21.5397 53.9482 C.3 0 **** -0.106
3839 C15 20.2674 22.9231 53.7166 C.3 0 **** -0.106
3840 C16 19.435 23.2633 54.9228 C.3 0 **** -0.106
3841 C17 20.2599 23.2999 56.1919 C.ar 0 **** 0
3842 C18 19.9119 24.1106 57.224 C.ar 0 **** 0
3843 C19 20.6549 24.1349 58.3707 C.ar 0 **** 0
3844 C20 21.9679 23.2715 58.5282 C.ar 0 **** 0
3845 C21 22.8996 23.2654 59.6423 C.ar 0 **** 0
3846 C22 23.9633 22.3579 59.5939 C.ar 0 **** 0
3847 C23 24.2281 21.5326 58.557 C.ar 0 **** 0.042
3848 C24 20.215 25.0252 59.5237 C.3 0 **** -0.106
3849 C25 18.8002 25.6643 59.4088 C.ar 0 **** 0
3850 C26 18.1151 25.629 58.2192 C.ar 0 **** 0
3851 C27 18.6611 24.9564 57.0023 C.3 0 **** -0.106
3852 C28 16.872 26.2469 58.1012 C.ar 0 **** 0.042
3853 C29 16.2865 26.9266 59.1555 C.ar 0 **** 0
3854 C30 16.9875 26.9416 60.3514 C.ar 0 **** 0
3855 C31 18.2286 26.3262 60.4921 C.ar 0 **** 0
3856 C32 16.4369 27.6569 61.5958 C.ar 0 **** 0
3857 C33 15.0749 28.3251 61.3822 C.3 0 **** -0.106
3858 C34 14.8745 28.806 59.9467 C.3 0 **** -0.106
3859 C35 14.9392 27.5944 59.0196 C.3 0 **** -0.106
3860 C36 18.9081 26.4035 61.8443 C.ar 0 **** -0.1268
3861 C37 18.3153 27.0702 62.8696 C.ar 0 **** 0.0265
3862 C38 17.1265 27.6803 62.7634 C.ar 0 **** -0.1268
3863 C39 24.8769 22.332 60.7627 C.3 0 **** -0.106
3864 C40 24.2313 23.4317 61.5412 C.ar 0 **** 0
3865 C41 23.1053 23.9644 60.9104 C.ar 0 **** 0
3866 C42 22.487 25.0393 61.5825 C.ar 0 **** -0.1268
3867 C43 22.9526 25.5068 62.8291 C.ar 0 **** 0
3868 C44 24.083 24.9289 63.445 C.ar 0 **** 0
3869 C45 24.7316 23.8798 62.7741 C.ar 0 **** 0
3870 C46 25.884 23.3095 63.3577 C.ar 0 **** -0.1268
3871 C47 26.3978 23.7419 64.5708 C.ar 0 **** 0
3872 C48 25.7465 24.7786 65.2131 C.ar 0 **** -0.1268
3873 C49 24.5973 25.3879 64.6821 C.ar 0 **** 0
3874 C50 23.9393 26.4487 65.3296 C.ar 0 **** 0.042
3875 C51 22.8262 27.0313 64.7564 C.ar 0 **** -0.1268
3876 C52 22.342 26.583 63.5305 C.ar 0 **** -0.1268
3877 O53 25.5836 16.7932 52.3275 O.3 0 **** -0.452
3878 C54 23.2693 17.817 51.0182 C.3 0 **** -0.159
3879 O55 25.2923 20.7126 58.6129 O.3 0 **** -0.452
3880 C56 27.6529 23.0385 65.0748 C.3 0 **** -0.106
3881 C57 28.044 23.4573 66.4962 C.3 0 **** -0.159
3882 O58 18.9589 27.1176 64.0476 O.3 0 **** -0.4365
3883 O59 16.1597 26.2238 56.933 O.3 0 **** -0.452
3884 O60 24.3222 26.9724 66.5106 O.3 0 **** -0.452
3885 H61 26.1498 17.7934 54.7497 H 0 **** 0.1268
3886 H62 22.0881 19.6184 52.5368 H 0 **** 0.1268
3887 H63 25.7994 20.2304 56.2599 H 0 **** 0.053
3888 H64 24.7848 18.9441 57.015 H 0 **** 0.053
3889 H65 21.4287 21.2869 53.0482 H 0 **** 0.053
3890 H66 20.0483 20.8053 54.0653 H 0 **** 0.053
3891 H67 21.072 23.6786 53.5424 H 0 **** 0.053
3892 H68 19.6345 22.9226 52.7804 H 0 **** 0.053
3893 H69 18.9484 24.2294 54.7406 H 0 **** 0.053
3894 H70 18.6299 22.5139 55.0208 H 0 **** 0.053
3895 H71 20.2334 24.4185 60.4534 H 0 **** 0.053
3896 H72 17.8875 24.2869 56.6128 H 0 **** 0.053
3897 H73 14.279 27.5972 61.6408 H 0 **** 0.053
3898 H74 14.9949 29.1533 62.0998 H 0 **** 0.053
3899 H75 13.903 29.3067 59.8518 H 0 **** 0.053
3900 H76 15.6449 29.5429 59.6781 H 0 **** 0.053
3901 H77 14.1529 26.8741 59.2831 H 0 **** 0.053
3902 H78 14.77 27.895 57.9917 H 0 **** 0.053
3903 H79 19.8524 25.9066 61.9584 H 0 **** 0.1268
3904 H80 16.6756 28.1966 63.5963 H 0 **** 0.1268
3905 H81 24.8433 21.3828 61.3203 H 0 **** 0.053
3906 H82 25.9175 22.5907 60.5089 H 0 **** 0.053
3907 H83 21.6452 25.6035 61.2084 H 0 **** 0.1268
3908 H84 26.4054 22.4841 62.8392 H 0 **** 0.1268
3909 H85 26.1503 25.1249 66.1612 H 0 **** 0.1268
3910 H86 22.2991 27.8689 65.2422 H 0 **** 0.1268
3911 H87 21.4563 27.0905 63.054 H 0 **** 0.1268
3912 H88 26.3195 16.5513 52.8725 H 0 **** 0.41
3913 H89 24.1312 17.5549 50.3934 H 0 **** 0.053
3914 H90 22.702 18.5852 50.4745 H 0 **** 0.053
3915 H91 22.637 16.9199 51.1151 H 0 **** 0.053
3916 H92 25.7543 20.8287 59.4317 H 0 **** 0.41
3917 H93 27.4976 21.955 65.0619 H 0 **** 0.053
3918 H94 28.9524 22.9224 66.8373 H 0 **** 0.053
3919 H95 27.2418 23.2318 67.2249 H 0 **** 0.053
3920 H96 28.2695 24.5385 66.5571 H 0 **** 0.053
3921 H97 19.7367 26.583 64.0334 H 0 **** 0.41
3922 H98 16.6386 25.7546 56.2691 H 0 **** 0.41
3923 H99 25.1006 26.5245 66.8169 H 0 **** 0.41
3924 H100 20.9289 25.8736 59.5532 H 0 **** 0.053
3925 H101 18.8991 25.7125 56.2451 H 0 **** 0.053
3926 H102 28.4881 23.2556 64.4004 H 0 **** 0.053
3927 C1 53.8051 -3.49261 26.4076 C.ar 0 **** 0.042
3928 C2 53.8231 -3.52621 27.7896 C.ar 0 **** -0.1268
3929 C3 53.9417 -2.3577 28.5239 C.ar 0 **** 0
3930 C4 54.047 -1.11882 27.8901 C.ar 0 **** 0
3931 C5 54.0141 -1.09446 26.4926 C.ar 0 **** -0.1268
3932 C6 53.9084 -2.25993 25.7483 C.ar 0 **** 0
3933 C7 54.161 -0.109873 28.9322 C.ar 0 **** 0
3934 C8 54.1076 -0.758529 30.1534 C.ar 0 **** 0
3935 C9 53.969 -2.23595 30.0172 C.3 0 **** -0.106
3936 C10 54.1777 -0.0268703 31.3339 C.ar 0 **** 0
3937 C11 54.3013 1.37797 31.304 C.ar 0 **** 0
3938 C12 54.3602 1.9889 30.0215 C.ar 0 **** 0
3939 C13 54.3033 1.25175 28.8334 C.ar 0 **** 0
3940 C14 54.3671 1.94734 27.5027 C.3 0 **** -0.106
3941 C15 55.229 3.20731 27.5861 C.3 0 **** -0.106
3942 C16 54.5898 4.13182 28.5862 C.3 0 **** -0.106
3943 C17 54.503 3.50879 29.9635 C.ar 0 **** 0
3944 C18 54.5344 4.28168 31.0795 C.ar 0 **** 0
3945 C19 54.4478 3.71586 32.3205 C.ar 0 **** 0
3946 C20 54.3621 2.1511 32.5156 C.ar 0 **** 0
3947 C21 54.358 1.40999 33.7645 C.ar 0 **** 0
3948 C22 54.2005 0.021639 33.6949 C.ar 0 **** 0
3949 C23 54.1195 -0.689999 32.5489 C.ar 0 **** 0.042
3950 C24 54.4459 4.61335 33.5493 C.3 0 **** -0.106
3951 C25 54.2914 6.14115 33.2943 C.ar 0 **** 0
3952 C26 54.4156 6.65122 32.0254 C.ar 0 **** 0
3953 C27 54.6634 5.78258 30.8357 C.3 0 **** -0.106
3954 C28 54.3311 8.02435 31.8044 C.ar 0 **** 0.042
3955 C29 54.1358 8.92396 32.8381 C.ar 0 **** 0
3956 C30 54.0013 8.38964 34.1103 C.ar 0 **** 0
3957 C31 54.078 7.02053 34.3524 C.ar 0 **** 0
3958 C32 53.7742 9.28659 35.3377 C.ar 0 **** 0
3959 C33 53.7079 10.7829 35.0157 C.3 0 **** -0.106
3960 C34 54.5675 11.164 33.8121 C.3 0 **** -0.106
3961 C35 54.0457 10.4108 32.5906 C.3 0 **** -0.106
3962 C36 53.9207 6.54414 35.7819 C.ar 0 **** -0.1268
3963 C37 53.7287 7.44208 36.7836 C.ar 0 **** 0.0265
3964 C38 53.6569 8.76549 36.5841 C.ar 0 **** -0.1268
3965 C39 54.1502 -0.713316 34.9827 C.3 0 **** -0.106
3966 C40 54.3614 0.457994 35.8859 C.ar 0 **** 0
3967 C41 54.4778 1.66811 35.1992 C.ar 0 **** 0
3968 C42 54.727 2.79916 36.0042 C.ar 0 **** -0.1268
3969 C43 54.8046 2.71215 37.4098 C.ar 0 **** 0
3970 C44 54.6615 1.47296 38.0694 C.ar 0 **** 0
3971 C45 54.4466 0.330961 37.2815 C.ar 0 **** 0
3972 C46 54.3343 -0.923605 37.9194 C.ar 0 **** -0.1268
3973 C47 54.4236 -1.07171 39.2951 C.ar 0 **** 0
3974 C48 54.6392 0.064836 40.0523 C.ar 0 **** -0.1268
3975 C49 54.7619 1.33999 39.4756 C.ar 0 **** 0
3976 C50 54.9937 2.495 40.2435 C.ar 0 **** 0.042
3977 C51 55.1298 3.72402 39.6289 C.ar 0 **** -0.1268
3978 C52 55.0473 3.83824 38.2438 C.ar 0 **** -0.1268
3979 O53 53.6856 -4.64952 25.675 O.3 0 **** -0.452
3980 C54 53.8722 -2.20149 24.2288 C.3 0 **** -0.159
3981 O55 53.9872 -2.02678 32.6023 O.3 0 **** -0.452
3982 C56 54.2911 -2.48826 39.8435 C.3 0 **** -0.106
3983 C57 54.2229 -2.53245 41.3741 C.3 0 **** -0.159
3984 O58 53.6075 6.97417 38.0366 O.3 0 **** -0.4365
3985 O59 54.4438 8.56442 30.5519 O.3 0 **** -0.452
3986 O60 55.1067 2.50422 41.5862 O.3 0 **** -0.452
3987 H61 53.7387 -4.48523 28.3507 H 0 **** 0.1268
3988 H62 54.0587 -0.170994 25.8995 H 0 **** 0.1268
3989 H63 54.826 -2.79929 30.4285 H 0 **** 0.053
3990 H64 53.0299 -2.63317 30.4446 H 0 **** 0.053
3991 H65 54.8116 1.31461 26.7399 H 0 **** 0.053
3992 H66 53.3485 2.23776 27.1632 H 0 **** 0.053
3993 H67 56.276 2.94505 27.8751 H 0 **** 0.053
3994 H68 55.3013 3.70188 26.5727 H 0 **** 0.053
3995 H69 55.1694 5.06274 28.6104 H 0 **** 0.053
3996 H70 53.5782 4.39496 28.23 H 0 **** 0.053
3997 H71 53.6076 4.29763 34.2052 H 0 **** 0.053
3998 H72 53.9283 6.04606 30.0686 H 0 **** 0.053
3999 H73 52.6516 11.0554 34.8156 H 0 **** 0.053
4000 H74 54.0128 11.3305 35.9184 H 0 **** 0.053
4001 H75 54.5158 12.2465 33.6428 H 0 **** 0.053
4002 H76 55.622 10.9167 34.0005 H 0 **** 0.053
4003 H77 52.9981 10.6801 32.3995 H 0 **** 0.053
4004 H78 54.6146 10.6806 31.708 H 0 **** 0.053
4005 H79 53.9521 5.48722 35.9637 H 0 **** 0.1268
4006 H80 53.4904 9.45431 37.3975 H 0 **** 0.1268
4007 H81 53.175 -1.18773 35.1751 H 0 **** 0.053
4008 H82 54.9631 -1.44828 35.0975 H 0 **** 0.053
4009 H83 54.9023 3.79853 35.6337 H 0 **** 0.1268
4010 H84 54.1665 -1.83085 37.3105 H 0 **** 0.1268
4011 H85 54.7154 -0.0476048 41.1308 H 0 **** 0.1268
4012 H86 55.3166 4.64226 40.2099 H 0 **** 0.1268
4013 H87 55.1983 4.83988 37.7507 H 0 **** 0.1268
4014 H88 53.6279 -5.37586 26.2812 H 0 **** 0.41
4015 H89 54.3481 -3.0872 23.792 H 0 **** 0.053
4016 H90 54.4079 -1.32495 23.8389 H 0 **** 0.053
4017 H91 52.832 -2.16394 23.8677 H 0 **** 0.053
4018 H92 53.9665 -2.32118 33.5023 H 0 **** 0.41
4019 H93 53.3851 -2.95361 39.442 H 0 **** 0.053
4020 H94 54.1159 -3.57216 41.7415 H 0 **** 0.053
4021 H95 53.3579 -1.96087 41.7621 H 0 **** 0.053
4022 H96 55.1406 -2.12344 41.8365 H 0 **** 0.053
4023 H97 53.5496 6.0324 38.048 H 0 **** 0.41
4024 H98 54.5851 7.88208 29.9158 H 0 **** 0.41
4025 H99 55.0019 1.62122 41.9167 H 0 **** 0.41
4026 H100 55.4368 4.48547 34.0311 H 0 **** 0.053
4027 H101 55.6718 5.97297 30.4503 H 0 **** 0.053
4028 H102 55.1425 -3.09252 39.51 H 0 **** 0.053
4029 C1 65.9845 48.0686 86.5328 C.ar 0 **** 0.042
4030 C2 67.2228 47.7855 87.0786 C.ar 0 **** -0.1268
4031 C3 68.2962 47.4608 86.2657 C.ar 0 **** 0
4032 C4 68.1567 47.4098 84.878 C.ar 0 **** 0
4033 C5 66.9038 47.711 84.3354 C.ar 0 **** -0.1268
4034 C6 65.8199 48.0248 85.1415 C.ar 0 **** 0
4035 C7 69.4516 47.0392 84.3279 C.ar 0 **** 0
4036 C8 70.3315 46.8922 85.3858 C.ar 0 **** 0
4037 C9 69.6909 47.1383 86.7085 C.3 0 **** -0.106
4038 C10 71.6587 46.5536 85.1455 C.ar 0 **** 0
4039 C11 72.1247 46.3583 83.8285 C.ar 0 **** 0
4040 C12 71.1742 46.5141 82.7827 C.ar 0 **** 0
4041 C13 69.8355 46.8415 83.025 C.ar 0 **** 0
4042 C14 68.8714 46.9969 81.8826 C.3 0 **** -0.106
4043 C15 69.2389 46.065 80.7277 C.3 0 **** -0.106
4044 C16 70.6157 46.4451 80.2552 C.3 0 **** -0.106
4045 C17 71.6533 46.299 81.3481 C.ar 0 **** 0
4046 C18 72.9449 46.0083 81.0462 C.ar 0 **** 0
4047 C19 73.8798 45.885 82.0352 C.ar 0 **** 0
4048 C20 73.4971 46.0202 83.5615 C.ar 0 **** 0
4049 C21 74.3581 45.8246 84.7146 C.ar 0 **** 0
4050 C22 73.8146 46.0715 85.9798 C.ar 0 **** 0
4051 C23 72.5284 46.4133 86.2146 C.ar 0 **** 0.042
4052 C24 75.3263 45.5979 81.6603 C.3 0 **** -0.106
4053 C25 75.6895 45.7114 80.1509 C.ar 0 **** 0
4054 C26 74.701 45.8066 79.2025 C.ar 0 **** 0
4055 C27 73.2512 45.8438 79.5603 C.3 0 **** -0.106
4056 C28 75.0237 45.8541 77.8479 C.ar 0 **** 0.042
4057 C29 76.3329 45.7942 77.4022 C.ar 0 **** 0
4058 C30 77.3175 45.71 78.3744 C.ar 0 **** 0
4059 C31 77.0169 45.6658 79.7333 C.ar 0 **** 0
4060 C32 78.8082 45.645 78.0041 C.ar 0 **** 0
4061 C33 79.0808 45.6864 76.497 C.3 0 **** -0.106
4062 C34 77.9564 45.0559 75.6783 C.3 0 **** -0.106
4063 C35 76.6747 45.8462 75.9324 C.3 0 **** -0.106
4064 C36 78.1708 45.5733 80.7111 C.ar 0 **** -0.1268
4065 C37 79.45 45.5205 80.2552 C.ar 0 **** 0.0265
4066 C38 79.7714 45.5524 78.9543 C.ar 0 **** -0.1268
4067 C39 74.7224 45.9134 87.1426 C.3 0 **** -0.106
4068 C40 75.9315 45.4646 86.3883 C.ar 0 **** 0
4069 C41 75.7311 45.4145 85.0074 C.ar 0 **** 0
4070 C42 76.8287 44.9499 84.2532 C.ar 0 **** -0.1268
4071 C43 78.0567 44.6063 84.8562 C.ar 0 **** 0
4072 C44 78.227 44.6893 86.2545 C.ar 0 **** 0
4073 C45 77.1341 45.1179 87.0246 C.ar 0 **** 0
4074 C46 77.2732 45.1764 88.4284 C.ar 0 **** -0.1268
4075 C47 78.4493 44.8314 89.0766 C.ar 0 **** 0
4076 C48 79.5124 44.4089 88.3 C.ar 0 **** -0.1268
4077 C49 79.4345 44.3272 86.8997 C.ar 0 **** 0
4078 C50 80.5112 43.887 86.1096 C.ar 0 **** 0.042
4079 C51 80.3791 43.8021 84.7376 C.ar 0 **** -0.1268
4080 C52 79.1803 44.1435 84.1173 C.ar 0 **** -0.1268
4081 O53 64.9172 48.3937 87.3356 O.3 0 **** -0.452
4082 C54 64.4696 48.3506 84.5218 C.3 0 **** -0.159
4083 O55 72.1106 46.6089 87.4773 O.3 0 **** -0.452
4084 C56 78.4514 44.936 90.5977 C.3 0 **** -0.106
4085 C57 79.8379 44.7094 91.2103 C.3 0 **** -0.159
4086 O58 80.439 45.43 81.1596 O.3 0 **** -0.4365
4087 O59 74.0637 45.9556 76.878 O.3 0 **** -0.452
4088 O60 81.7114 43.5184 86.5987 O.3 0 **** -0.452
4089 H61 67.3951 47.8139 88.179 H 0 **** 0.1268
4090 H62 66.6968 47.7294 83.2567 H 0 **** 0.1268
4091 H63 69.6845 46.2513 87.3675 H 0 **** 0.053
4092 H64 70.1207 47.998 87.2549 H 0 **** 0.053
4093 H65 67.8565 46.7451 82.1766 H 0 **** 0.053
4094 H66 68.8746 48.0438 81.5067 H 0 **** 0.053
4095 H67 69.1942 44.9985 81.058 H 0 **** 0.053
4096 H68 68.4869 46.1621 79.8899 H 0 **** 0.053
4097 H69 70.8645 45.8197 79.389 H 0 **** 0.053
4098 H70 70.5923 47.4898 79.8982 H 0 **** 0.053
4099 H71 75.9732 46.3102 82.2143 H 0 **** 0.053
4100 H72 72.7997 46.6973 79.0445 H 0 **** 0.053
4101 H73 79.2114 46.7441 76.1897 H 0 **** 0.053
4102 H74 80.0409 45.1824 76.319 H 0 **** 0.053
4103 H75 78.2122 45.0782 74.6118 H 0 **** 0.053
4104 H76 77.8244 44.0007 75.9569 H 0 **** 0.053
4105 H77 76.8108 46.894 75.632 H 0 **** 0.053
4106 H78 75.859 45.4446 75.3417 H 0 **** 0.053
4107 H79 77.9389 45.566 81.7588 H 0 **** 0.1268
4108 H80 80.7966 45.5173 78.6203 H 0 **** 0.1268
4109 H81 74.9179 46.8585 87.6734 H 0 **** 0.053
4110 H82 74.3923 45.1371 87.8513 H 0 **** 0.053
4111 H83 76.8257 44.7939 83.1843 H 0 **** 0.1268
4112 H84 76.4198 45.5107 89.0464 H 0 **** 0.1268
4113 H85 80.4346 44.1324 88.8048 H 0 **** 0.1268
4114 H86 81.2076 43.4544 84.0987 H 0 **** 0.1268
4115 H87 79.0713 44.0342 83.0014 H 0 **** 0.1268
4116 H88 65.2099 48.3724 88.2366 H 0 **** 0.41
4117 H89 63.6508 48.0194 85.1712 H 0 **** 0.053
4118 H90 64.3313 47.8515 83.5527 H 0 **** 0.053
4119 H91 64.3641 49.4371 84.3728 H 0 **** 0.053
4120 H92 72.8229 46.4712 88.0863 H 0 **** 0.41
4121 H93 78.0971 45.9277 90.8976 H 0 **** 0.053
4122 H94 79.8095 44.8023 92.314 H 0 **** 0.053
4123 H95 80.5744 45.449 90.8417 H 0 **** 0.053
4124 H96 80.2244 43.6979 90.9851 H 0 **** 0.053
4125 H97 80.1061 45.5131 82.0388 H 0 **** 0.41
4126 H98 73.206 45.9796 77.2704 H 0 **** 0.41
4127 H99 81.7055 43.6023 87.5436 H 0 **** 0.41
4128 H100 75.5175 44.5416 81.9392 H 0 **** 0.053
4129 H101 72.7691 44.9199 79.2201 H 0 **** 0.053
4130 H102 77.755 44.2011 91.0174 H 0 **** 0.053
4131 C1 29.183 13.8771 78.859 C.ar 0 **** 0.042
4132 C2 28.3439 14.9522 78.6325 C.ar 0 **** -0.1268
4133 C3 28.7939 16.068 77.9462 C.ar 0 **** 0
4134 C4 30.103 16.1372 77.4674 C.ar 0 **** 0
4135 C5 30.9394 15.0392 77.69 C.ar 0 **** -0.1268
4136 C6 30.5021 13.9228 78.3869 C.ar 0 **** 0
4137 C7 30.2531 17.4251 76.8074 C.ar 0 **** 0
4138 C8 29.0397 18.0852 76.8923 C.ar 0 **** 0
4139 C9 28.0042 17.299 77.6204 C.3 0 **** -0.106
4140 C10 28.8917 19.3455 76.3237 C.ar 0 **** 0
4141 C11 29.9683 19.9646 75.6548 C.ar 0 **** 0
4142 C12 31.1927 19.2434 75.6066 C.ar 0 **** 0
4143 C13 31.3459 17.9809 76.1904 C.ar 0 **** 0
4144 C14 32.6618 17.2596 76.1087 C.3 0 **** -0.106
4145 C15 33.8271 18.2492 76.0981 C.3 0 **** -0.106
4146 C16 33.6751 19.1199 74.8806 C.3 0 **** -0.106
4147 C17 32.3759 19.8973 74.895 C.ar 0 **** 0
4148 C18 32.2823 21.1066 74.2843 C.ar 0 **** 0
4149 C19 31.1056 21.8014 74.2932 C.ar 0 **** 0
4150 C20 29.8286 21.2624 75.0501 C.ar 0 **** 0
4151 C21 28.5494 21.9284 75.2211 C.ar 0 **** 0
4152 C22 27.5319 21.2226 75.8719 C.ar 0 **** 0
4153 C23 27.6699 19.9924 76.4138 C.ar 0 **** 0.042
4154 C24 31.0234 23.1354 73.5657 C.3 0 **** -0.106
4155 C25 32.2245 23.5015 72.6456 C.ar 0 **** 0
4156 C26 33.3906 22.7786 72.7029 C.ar 0 **** 0
4157 C27 33.5573 21.601 73.6067 C.3 0 **** -0.106
4158 C28 34.4838 23.1375 71.9173 C.ar 0 **** 0.042
4159 C29 34.4512 24.2308 71.069 C.ar 0 **** 0
4160 C30 33.2622 24.9419 71.0161 C.ar 0 **** 0
4161 C31 32.1561 24.5967 71.7884 C.ar 0 **** 0
4162 C32 33.1009 26.1698 70.1055 C.ar 0 **** 0
4163 C33 34.3497 26.5066 69.2859 C.3 0 **** -0.106
4164 C34 35.6432 26.125 70.001 C.3 0 **** -0.106
4165 C35 35.6408 24.6141 70.2217 C.3 0 **** -0.106
4166 C36 30.9052 25.4409 71.6503 C.ar 0 **** -0.1268
4167 C37 30.8895 26.506 70.8062 C.ar 0 **** 0.0265
4168 C38 31.9409 26.8706 70.0589 C.ar 0 **** -0.1268
4169 C39 26.2178 21.9003 75.9945 C.3 0 **** -0.106
4170 C40 26.6022 23.1926 75.3507 C.ar 0 **** 0
4171 C41 27.9258 23.2136 74.9068 C.ar 0 **** 0
4172 C42 28.353 24.43 74.3344 C.ar 0 **** -0.1268
4173 C43 27.4824 25.5292 74.1816 C.ar 0 **** 0
4174 C44 26.1444 25.4624 74.625 C.ar 0 **** 0
4175 C45 25.7113 24.2707 75.2281 C.ar 0 **** 0
4176 C46 24.3858 24.1948 75.7086 C.ar 0 **** -0.1268
4177 C47 23.4928 25.2503 75.6042 C.ar 0 **** 0
4178 C48 23.9403 26.4158 75.0101 C.ar 0 **** -0.1268
4179 C49 25.2479 26.5531 74.515 C.ar 0 **** 0
4180 C50 25.7079 27.7418 73.921 C.ar 0 **** 0.042
4181 C51 27.0096 27.8365 73.4695 C.ar 0 **** -0.1268
4182 C52 27.8863 26.7629 73.6005 C.ar 0 **** -0.1268
4183 O53 28.74 12.7667 79.5372 O.3 0 **** -0.452
4184 C54 31.4346 12.7423 78.6111 C.3 0 **** -0.159
4185 O55 26.6255 19.4159 77.0335 O.3 0 **** -0.452
4186 C56 22.0963 25.0277 76.1747 C.3 0 **** -0.106
4187 C57 21.1305 26.1745 75.856 C.3 0 **** -0.159
4188 O58 29.758 27.2244 70.7172 O.3 0 **** -0.4365
4189 O59 35.6565 22.4328 71.9429 O.3 0 **** -0.452
4190 O60 24.9563 28.8473 73.7532 O.3 0 **** -0.452
4191 H61 27.2879 14.9524 78.9878 H 0 **** 0.1268
4192 H62 31.975 14.9805 77.3285 H 0 **** 0.1268
4193 H63 27.6553 17.7835 78.5504 H 0 **** 0.053
4194 H64 27.1315 17.0324 76.9963 H 0 **** 0.053
4195 H65 32.8149 16.6056 76.9623 H 0 **** 0.053
4196 H66 32.7138 16.6426 75.1846 H 0 **** 0.053
4197 H67 33.8357 18.8514 77.0392 H 0 **** 0.053
4198 H68 34.8122 17.6962 76.0745 H 0 **** 0.053
4199 H69 34.5382 19.7953 74.8335 H 0 **** 0.053
4200 H70 33.7198 18.4818 73.9805 H 0 **** 0.053
4201 H71 30.1094 23.1279 72.9354 H 0 **** 0.053
4202 H72 33.9439 20.77 73.0083 H 0 **** 0.053
4203 H73 34.2931 25.9731 68.3157 H 0 **** 0.053
4204 H74 34.3177 27.5797 69.0591 H 0 **** 0.053
4205 H75 36.5081 26.4202 69.394 H 0 **** 0.053
4206 H76 35.7246 26.6578 70.9595 H 0 **** 0.053
4207 H77 35.5793 24.0913 69.2576 H 0 **** 0.053
4208 H78 36.5614 24.3004 70.7013 H 0 **** 0.053
4209 H79 30.0454 25.158 72.2267 H 0 **** 0.1268
4210 H80 31.8995 27.7178 69.3928 H 0 **** 0.1268
4211 H81 25.4163 21.4009 75.4276 H 0 **** 0.053
4212 H82 25.9054 22.0605 77.0389 H 0 **** 0.053
4213 H83 29.3573 24.6375 73.9949 H 0 **** 0.1268
4214 H84 24.0325 23.2628 76.1868 H 0 **** 0.1268
4215 H85 23.2447 27.2475 74.931 H 0 **** 0.1268
4216 H86 27.3939 28.7603 73.0062 H 0 **** 0.1268
4217 H87 28.9568 26.8649 73.2643 H 0 **** 0.1268
4218 H88 27.8354 12.9118 79.7797 H 0 **** 0.41
4219 H89 31.2224 12.2523 79.5686 H 0 **** 0.053
4220 H90 32.489 13.0506 78.6362 H 0 **** 0.053
4221 H91 31.3092 11.9929 77.8132 H 0 **** 0.053
4222 H92 25.8706 19.9874 77.0111 H 0 **** 0.41
4223 H93 21.6786 24.0997 75.7706 H 0 **** 0.053
4224 H94 20.123 25.9793 76.2735 H 0 **** 0.053
4225 H95 21.0074 26.315 74.7649 H 0 **** 0.053
4226 H96 21.4751 27.1322 76.289 H 0 **** 0.053
4227 H97 29.0687 26.841 71.2351 H 0 **** 0.41
4228 H98 35.5958 21.7221 72.5604 H 0 **** 0.41
4229 H99 24.0854 28.6923 74.0964 H 0 **** 0.41
4230 H100 30.9945 23.9181 74.351 H 0 **** 0.053
4231 H101 34.28 21.8463 74.3936 H 0 **** 0.053
4232 H102 22.1583 24.9098 77.2626 H 0 **** 0.053
4233 C1 22.6904 81.1903 53.4435 C.ar 0 **** 0.042
4234 C2 21.4844 81.1492 52.769 C.ar 0 **** -0.1268
4235 C3 21.4496 81.0591 51.3873 C.ar 0 **** 0
4236 C4 22.6278 81.0102 50.6408 C.ar 0 **** 0
4237 C5 23.8423 81.0373 51.3335 C.ar 0 **** -0.1268
4238 C6 23.8875 81.1394 52.716 C.ar 0 **** 0
4239 C7 22.2458 80.9321 49.2388 C.ar 0 **** 0
4240 C8 20.8638 80.9117 49.179 C.ar 0 **** 0
4241 C9 20.2268 80.9993 50.5234 C.3 0 **** -0.106
4242 C10 20.2225 80.8177 47.9485 C.ar 0 **** 0
4243 C11 20.9667 80.7332 46.7527 C.ar 0 **** 0
4244 C12 22.3828 80.7661 46.8757 C.ar 0 **** 0
4245 C13 23.0257 80.8862 48.1119 C.ar 0 **** 0
4246 C14 24.5201 80.9234 48.1879 C.3 0 **** -0.106
4247 C15 25.1311 81.56 46.9435 C.3 0 **** -0.106
4248 C16 24.7172 80.7369 45.7526 C.3 0 **** -0.106
4249 C17 23.2119 80.6808 45.5948 C.ar 0 **** 0
4250 C18 22.6458 80.5446 44.3679 C.ar 0 **** 0
4251 C19 21.2872 80.4862 44.2312 C.ar 0 **** 0
4252 C20 20.3199 80.6234 45.4723 C.ar 0 **** 0
4253 C21 18.8686 80.673 45.4686 C.ar 0 **** 0
4254 C22 18.2176 80.7264 46.7059 C.ar 0 **** 0
4255 C23 18.8386 80.8045 47.9035 C.ar 0 **** 0.042
4256 C24 20.6858 80.2955 42.8472 C.3 0 **** -0.106
4257 C25 21.6758 79.9284 41.7039 C.ar 0 **** 0
4258 C26 23.0316 80.0328 41.8958 C.ar 0 **** 0
4259 C27 23.6232 80.4604 43.1988 C.3 0 **** -0.106
4260 C28 23.9161 79.7555 40.8555 C.ar 0 **** 0.042
4261 C29 23.4761 79.3833 39.5971 C.ar 0 **** 0
4262 C30 22.1045 79.2733 39.4259 C.ar 0 **** 0
4263 C31 21.2036 79.5394 40.4534 C.ar 0 **** 0
4264 C32 21.4947 78.8628 38.077 C.ar 0 **** 0
4265 C33 22.529 78.5957 36.9837 C.3 0 **** -0.106
4266 C34 23.7917 79.4381 37.1378 C.3 0 **** -0.106
4267 C35 24.4411 79.0857 38.474 C.3 0 **** -0.106
4268 C36 19.7255 79.3855 40.1564 C.ar 0 **** -0.1268
4269 C37 19.3125 79.0126 38.9163 C.ar 0 **** 0.0265
4270 C38 20.1537 78.7586 37.9045 C.ar 0 **** -0.1268
4271 C39 16.7345 80.727 46.6842 C.3 0 **** -0.106
4272 C40 16.56 80.7214 45.2004 C.ar 0 **** 0
4273 C41 17.7697 80.6884 44.5042 C.ar 0 **** 0
4274 C42 17.6608 80.7308 43.0987 C.ar 0 **** -0.1268
4275 C43 16.4098 80.7564 42.4478 C.ar 0 **** 0
4276 C44 15.2075 80.7684 43.1864 C.ar 0 **** 0
4277 C45 15.2976 80.7609 44.5875 C.ar 0 **** 0
4278 C46 14.1072 80.8058 45.3454 C.ar 0 **** -0.1268
4279 C47 12.8513 80.8527 44.7598 C.ar 0 **** 0
4280 C48 12.7848 80.8628 43.3788 C.ar 0 **** -0.1268
4281 C49 13.9333 80.822 42.5708 C.ar 0 **** 0
4282 C50 13.8676 80.8433 41.1662 C.ar 0 **** 0.042
4283 C51 15.0259 80.8246 40.4145 C.ar 0 **** -0.1268
4284 C52 16.273 80.7907 41.0326 C.ar 0 **** -0.1268
4285 O53 22.7287 81.2785 54.8146 O.3 0 **** -0.452
4286 C54 25.2235 81.165 53.4425 C.3 0 **** -0.159
4287 O55 18.1094 80.8708 49.0306 O.3 0 **** -0.452
4288 C56 11.655 80.9061 45.7036 C.3 0 **** -0.106
4289 C57 10.3129 80.7749 44.9751 C.3 0 **** -0.159
4290 O58 17.9923 78.8963 38.6983 O.3 0 **** -0.4365
4291 O59 25.2723 79.8425 41.0146 O.3 0 **** -0.452
4292 O60 12.7209 80.889 40.4601 O.3 0 **** -0.452
4293 H61 20.5115 81.1826 53.3109 H 0 **** 0.1268
4294 H62 24.8236 80.9675 50.8438 H 0 **** 0.1268
4295 H63 19.6186 81.9113 50.663 H 0 **** 0.053
4296 H64 19.6233 80.1111 50.7851 H 0 **** 0.053
4297 H65 24.8753 81.4821 49.0461 H 0 **** 0.053
4298 H66 24.8999 79.8922 48.2731 H 0 **** 0.053
4299 H67 24.7923 82.6205 46.8506 H 0 **** 0.053
4300 H68 26.2572 81.599 47.0306 H 0 **** 0.053
4301 H69 25.1903 81.1677 44.8609 H 0 **** 0.053
4302 H70 25.1191 79.7149 45.8638 H 0 **** 0.053
4303 H71 19.9304 79.4842 42.9091 H 0 **** 0.053
4304 H72 24.3905 79.7303 43.4753 H 0 **** 0.053
4305 H73 22.8027 77.5246 37.0251 H 0 **** 0.053
4306 H74 22.0395 78.7695 36.0163 H 0 **** 0.053
4307 H75 24.4838 79.2305 36.3124 H 0 **** 0.053
4308 H76 23.5461 80.5084 37.0936 H 0 **** 0.053
4309 H77 24.7036 78.0192 38.4989 H 0 **** 0.053
4310 H78 25.3593 79.6466 38.6084 H 0 **** 0.053
4311 H79 19.0335 79.5664 40.9564 H 0 **** 0.1268
4312 H80 19.799 78.4561 36.9317 H 0 **** 0.1268
4313 H81 16.2929 79.825 47.1362 H 0 **** 0.053
4314 H82 16.2921 81.6335 47.1275 H 0 **** 0.053
4315 H83 18.4942 80.7722 42.4129 H 0 **** 0.1268
4316 H84 14.1645 80.8018 46.4494 H 0 **** 0.1268
4317 H85 11.8022 80.9049 42.9159 H 0 **** 0.1268
4318 H86 14.9986 80.8469 39.3127 H 0 **** 0.1268
4319 H87 17.2119 80.8144 40.4108 H 0 **** 0.1268
4320 H88 21.8364 81.2997 55.133 H 0 **** 0.41
4321 H89 25.1669 81.7864 54.344 H 0 **** 0.053
4322 H90 26.0238 81.5822 52.8158 H 0 **** 0.053
4323 H91 25.5158 80.1483 53.7505 H 0 **** 0.053
4324 H92 17.1847 80.85 48.8278 H 0 **** 0.41
4325 H93 11.7315 80.0984 46.4388 H 0 **** 0.053
4326 H94 9.46468 80.8064 45.6871 H 0 **** 0.053
4327 H95 10.238 79.818 44.4238 H 0 **** 0.053
4328 H96 10.1559 81.5997 44.2551 H 0 **** 0.053
4329 H97 17.5029 79.0085 39.4978 H 0 **** 0.41
4330 H98 25.4811 80.1127 41.8943 H 0 **** 0.41
4331 H99 11.9841 80.9079 41.0575 H 0 **** 0.41
4332 H100 20.242 81.2712 42.5623 H 0 **** 0.053
4333 H101 24.0878 81.4462 43.0806 H 0 **** 0.053
4334 H102 11.6659 81.852 46.2572 H 0 **** 0.053
4335 C1 28.8087 88.0362 29.552 C.ar 0 **** 0.042
4336 C2 28.2717 86.9278 30.1789 C.ar 0 **** -0.1268
4337 C3 28.1937 85.7125 29.5191 C.ar 0 **** 0
4338 C4 28.649 85.5763 28.2067 C.ar 0 **** 0
4339 C5 29.1983 86.701 27.585 C.ar 0 **** -0.1268
4340 C6 29.2719 87.9235 28.2343 C.ar 0 **** 0
4341 C7 28.4238 84.1941 27.8128 C.ar 0 **** 0
4342 C8 27.8576 83.537 28.891 C.ar 0 **** 0
4343 C9 27.6535 84.4274 30.0683 C.3 0 **** -0.106
4344 C10 27.5491 82.1846 28.7974 C.ar 0 **** 0
4345 C11 27.8089 81.4675 27.6107 C.ar 0 **** 0
4346 C12 28.3833 82.1965 26.5336 C.ar 0 **** 0
4347 C13 28.6816 83.5605 26.6228 C.ar 0 **** 0
4348 C14 29.2909 84.2842 25.455 C.3 0 **** -0.106
4349 C15 28.8117 83.6863 24.1322 C.3 0 **** -0.106
4350 C16 29.2527 82.2484 24.0952 C.3 0 **** -0.106
4351 C17 28.6654 81.4431 25.235 C.ar 0 **** 0
4352 C18 28.4251 80.114 25.0957 C.ar 0 **** 0
4353 C19 27.9022 79.3895 26.1296 C.ar 0 **** 0
4354 C20 27.5074 80.0655 27.5012 C.ar 0 **** 0
4355 C21 26.8634 79.4454 28.6454 C.ar 0 **** 0
4356 C22 26.6747 80.2287 29.7889 C.ar 0 **** 0
4357 C23 26.9855 81.5399 29.8862 C.ar 0 **** 0.042
4358 C24 27.6822 77.8941 25.9539 C.3 0 **** -0.106
4359 C25 28.3042 77.2437 24.6838 C.ar 0 **** 0
4360 C26 28.7897 78.0284 23.6668 C.ar 0 **** 0
4361 C27 28.7831 79.5205 23.736 C.3 0 **** -0.106
4362 C28 29.2977 77.4472 22.5069 C.ar 0 **** 0.042
4363 C29 29.3226 76.0755 22.3228 C.ar 0 **** 0
4364 C30 28.8391 75.2994 23.3648 C.ar 0 **** 0
4365 C31 28.3315 75.8598 24.5341 C.ar 0 **** 0
4366 C32 28.8217 73.7645 23.2817 C.ar 0 **** 0
4367 C33 29.3811 73.2025 21.9708 C.3 0 **** -0.106
4368 C34 29.152 74.137 20.7849 C.3 0 **** -0.106
4369 C35 29.8746 75.4532 21.0627 C.3 0 **** -0.106
4370 C36 27.8286 74.9187 25.61 C.ar 0 **** -0.1268
4371 C37 27.866 73.5743 25.4137 C.ar 0 **** 0.0265
4372 C38 28.3397 73.0049 24.2965 C.ar 0 **** -0.1268
4373 C39 26.0591 79.5647 30.9641 C.3 0 **** -0.106
4374 C40 25.8375 78.226 30.3386 C.ar 0 **** 0
4375 C41 26.2953 78.1521 29.0214 C.ar 0 **** 0
4376 C42 26.0661 76.9235 28.3686 C.ar 0 **** -0.1268
4377 C43 25.4571 75.8332 29.0241 C.ar 0 **** 0
4378 C44 25.0255 75.9396 30.3635 C.ar 0 **** 0
4379 C45 25.2156 77.1665 31.0189 C.ar 0 **** 0
4380 C46 24.763 77.305 32.3492 C.ar 0 **** -0.1268
4381 C47 24.1418 76.2722 33.0346 C.ar 0 **** 0
4382 C48 23.9596 75.0745 32.3689 C.ar 0 **** -0.1268
4383 C49 24.3892 74.8767 31.0472 C.ar 0 **** 0
4384 C50 24.2071 73.6614 30.3645 C.ar 0 **** 0.042
4385 C51 24.6178 73.5235 29.0545 C.ar 0 **** -0.1268
4386 C52 25.2236 74.583 28.3875 C.ar 0 **** -0.1268
4387 O53 28.9019 89.2413 30.2053 O.3 0 **** -0.452
4388 C54 29.8768 89.1283 27.5362 C.3 0 **** -0.159
4389 O55 26.7418 82.1994 31.0319 O.3 0 **** -0.452
4390 C56 23.696 76.565 34.4623 C.3 0 **** -0.106
4391 C57 23.1839 75.3199 35.1958 C.3 0 **** -0.159
4392 O58 27.4018 72.7803 26.3926 O.3 0 **** -0.4365
4393 O59 29.7955 78.1998 21.4781 O.3 0 **** -0.452
4394 O60 23.6385 72.566 30.895 O.3 0 **** -0.452
4395 H61 27.8967 86.9756 31.2268 H 0 **** 0.1268
4396 H62 29.6126 86.6939 26.5678 H 0 **** 0.1268
4397 H63 26.5921 84.5515 30.3494 H 0 **** 0.053
4398 H64 28.2356 84.124 30.9581 H 0 **** 0.053
4399 H65 29.0117 85.3338 25.4428 H 0 **** 0.053
4400 H66 30.4009 84.2203 25.4903 H 0 **** 0.053
4401 H67 27.7022 83.7815 24.0405 H 0 **** 0.053
4402 H68 29.2456 84.2607 23.2612 H 0 **** 0.053
4403 H69 28.9635 81.827 23.1246 H 0 **** 0.053
4404 H70 30.3555 82.2142 24.142 H 0 **** 0.053
4405 H71 28.1105 77.377 26.8381 H 0 **** 0.053
4406 H72 29.7896 79.8727 23.4886 H 0 **** 0.053
4407 H73 30.4691 73.0273 22.0964 H 0 **** 0.053
4408 H74 28.9172 72.2202 21.8056 H 0 **** 0.053
4409 H75 29.5373 73.6775 19.8663 H 0 **** 0.053
4410 H76 28.0765 74.308 20.6337 H 0 **** 0.053
4411 H77 30.9506 75.274 21.1919 H 0 **** 0.053
4412 H78 29.7589 76.1324 20.2255 H 0 **** 0.053
4413 H79 27.4621 75.3512 26.5211 H 0 **** 0.1268
4414 H80 28.3644 71.9338 24.1704 H 0 **** 0.1268
4415 H81 26.7392 79.4876 31.8269 H 0 **** 0.053
4416 H82 25.1019 80.0168 31.2696 H 0 **** 0.053
4417 H83 26.3012 76.7139 27.3353 H 0 **** 0.1268
4418 H84 24.9046 78.2666 32.8767 H 0 **** 0.1268
4419 H85 23.4646 74.2693 32.9031 H 0 **** 0.1268
4420 H86 24.4702 72.5811 28.5029 H 0 **** 0.1268
4421 H87 25.5251 74.47 27.3087 H 0 **** 0.1268
4422 H88 28.5187 89.1421 31.0655 H 0 **** 0.41
4423 H89 29.3819 90.0457 27.8704 H 0 **** 0.053
4424 H90 29.7601 89.0744 26.445 H 0 **** 0.053
4425 H91 30.9491 89.2191 27.77 H 0 **** 0.053
4426 H92 26.3567 81.6177 31.6728 H 0 **** 0.41
4427 H93 24.5327 76.9859 35.0297 H 0 **** 0.053
4428 H94 22.8776 75.5528 36.2336 H 0 **** 0.053
4429 H95 23.962 74.5365 35.2622 H 0 **** 0.053
4430 H96 22.2973 74.8879 34.6967 H 0 **** 0.053
4431 H97 27.1817 73.28 27.1625 H 0 **** 0.41
4432 H98 29.7279 79.118 21.6843 H 0 **** 0.41
4433 H99 23.3455 72.7565 31.7773 H 0 **** 0.41
4434 H100 26.5864 77.7483 25.8628 H 0 **** 0.053
4435 H101 28.0714 79.9152 23.0016 H 0 **** 0.053
4436 H102 22.9019 77.3194 34.4436 H 0 **** 0.053
4437 C1 52.7982 70.9384 50.6606 C.ar 0 **** 0.042
4438 C2 52.0598 72.0273 51.0852 C.ar 0 **** -0.1268
4439 C3 52.679 73.1095 51.6885 C.ar 0 **** 0
4440 C4 54.0606 73.1291 51.8844 C.ar 0 **** 0
4441 C5 54.7997 72.0288 51.4395 C.ar 0 **** -0.1268
4442 C6 54.1877 70.935 50.8458 C.ar 0 **** 0
4443 C7 54.3854 74.3874 52.5384 C.ar 0 **** 0
4444 C8 53.2057 75.0917 52.705 C.ar 0 **** 0
4445 C9 52.0162 74.3559 52.1912 C.3 0 **** -0.106
4446 C10 53.2238 76.3504 53.2957 C.ar 0 **** 0
4447 C11 54.4373 76.9249 53.7285 C.ar 0 **** 0
4448 C12 55.6158 76.1521 53.5396 C.ar 0 **** 0
4449 C13 55.5961 74.8796 52.9579 C.ar 0 **** 0
4450 C14 56.8716 74.105 52.779 C.3 0 **** -0.106
4451 C15 57.8663 74.4257 53.8949 C.3 0 **** -0.106
4452 C16 58.1774 75.8957 53.8201 C.3 0 **** -0.106
4453 C17 56.9414 76.7496 54.0087 C.ar 0 **** 0
4454 C18 57.0301 77.9901 54.5538 C.ar 0 **** 0
4455 C19 55.913 78.7606 54.7152 C.ar 0 **** 0
4456 C20 54.476 78.231 54.3296 C.ar 0 **** 0
4457 C21 53.2006 78.8957 54.5291 C.ar 0 **** 0
4458 C22 52.0535 78.2619 54.0391 C.ar 0 **** 0
4459 C23 52.035 77.0445 53.4532 C.ar 0 **** 0.042
4460 C24 56.0525 80.1616 55.2924 C.3 0 **** -0.106
4461 C25 57.5003 80.7168 55.4295 C.ar 0 **** 0
4462 C26 58.582 79.884 55.2813 C.ar 0 **** 0
4463 C27 58.4353 78.4349 54.9497 C.3 0 **** -0.106
4464 C28 59.8763 80.369 55.4564 C.ar 0 **** 0.042
4465 C29 60.127 81.6871 55.7969 C.ar 0 **** 0
4466 C30 59.0235 82.5154 55.9308 C.ar 0 **** 0
4467 C31 57.7221 82.0522 55.7553 C.ar 0 **** 0
4468 C32 59.1741 84.0005 56.2982 C.ar 0 **** 0
4469 C33 60.625 84.4536 56.4897 C.3 0 **** -0.106
4470 C34 61.5262 83.3364 57.0111 C.3 0 **** -0.106
4471 C35 61.5327 82.2051 55.9855 C.3 0 **** -0.106
4472 C36 56.5887 83.0433 55.9259 C.ar 0 **** -0.1268
4473 C37 56.8543 84.3348 56.2553 C.ar 0 **** 0.0265
4474 C38 58.0944 84.8091 56.4393 C.ar 0 **** -0.1268
4475 C39 50.7658 78.9785 54.2093 C.3 0 **** -0.106
4476 C40 51.2984 80.1609 54.952 C.ar 0 **** 0
4477 C41 52.6819 80.1216 55.1335 C.ar 0 **** 0
4478 C42 53.2262 81.1943 55.8705 C.ar 0 **** -0.1268
4479 C43 52.429 82.2556 56.3472 C.ar 0 **** 0
4480 C44 51.0368 82.271 56.1261 C.ar 0 **** 0
4481 C45 50.4728 81.1943 55.4225 C.ar 0 **** 0
4482 C46 49.0786 81.1828 55.208 C.ar 0 **** -0.1268
4483 C47 48.2533 82.2027 55.6528 C.ar 0 **** 0
4484 C48 48.8196 83.2398 56.3631 C.ar 0 **** -0.1268
4485 C49 50.199 83.3056 56.6103 C.ar 0 **** 0
4486 C50 50.7819 84.3661 57.326 C.ar 0 **** 0.042
4487 C51 52.1434 84.3841 57.5515 C.ar 0 **** -0.1268
4488 C52 52.9538 83.3526 57.0845 C.ar 0 **** -0.1268
4489 O53 52.188 69.8638 50.0586 O.3 0 **** -0.452
4490 C54 55.0188 69.7536 50.3696 C.3 0 **** -0.159
4491 O55 50.8685 76.523 53.0359 O.3 0 **** -0.452
4492 C56 46.7763 82.0467 55.3691 C.3 0 **** -0.106
4493 C57 45.9336 83.2579 55.771 C.3 0 **** -0.159
4494 O58 55.8163 85.1741 56.4048 O.3 0 **** -0.4365
4495 O59 60.9759 79.568 55.3089 O.3 0 **** -0.452
4496 O60 50.0931 85.4068 57.8335 O.3 0 **** -0.452
4497 H61 50.9543 72.0697 50.9523 H 0 **** 0.1268
4498 H62 55.8932 71.9584 51.5181 H 0 **** 0.1268
4499 H63 51.28 74.1043 52.976 H 0 **** 0.053
4500 H64 51.5028 74.8713 51.3587 H 0 **** 0.053
4501 H65 56.6987 73.0331 52.8131 H 0 **** 0.053
4502 H66 57.3451 74.3494 51.8026 H 0 **** 0.053
4503 H67 57.4417 74.1422 54.8889 H 0 **** 0.053
4504 H68 58.8062 73.8105 53.7722 H 0 **** 0.053
4505 H69 58.9344 76.1238 54.5805 H 0 **** 0.053
4506 H70 58.6357 76.1115 52.8388 H 0 **** 0.053
4507 H71 55.487 80.8601 54.6404 H 0 **** 0.053
4508 H72 59.0907 78.2165 54.1006 H 0 **** 0.053
4509 H73 61.0142 84.8161 55.5164 H 0 **** 0.053
4510 H74 60.6168 85.3159 57.1708 H 0 **** 0.053
4511 H75 62.5436 83.7169 57.1647 H 0 **** 0.053
4512 H76 61.1659 82.9761 57.9853 H 0 **** 0.053
4513 H77 61.9134 82.5702 55.022 H 0 **** 0.053
4514 H78 62.1886 81.4046 56.3091 H 0 **** 0.053
4515 H79 55.5881 82.691 55.764 H 0 **** 0.1268
4516 H80 58.277 85.8416 56.6928 H 0 **** 0.1268
4517 H81 50.3091 79.2845 53.2547 H 0 **** 0.053
4518 H82 50.0357 78.4262 54.8226 H 0 **** 0.053
4519 H83 54.2643 81.2905 56.1511 H 0 **** 0.1268
4520 H84 48.6166 80.3381 54.6629 H 0 **** 0.1268
4521 H85 48.1637 84.0242 56.7329 H 0 **** 0.1268
4522 H86 52.6215 85.2039 58.1105 H 0 **** 0.1268
4523 H87 54.0574 83.3597 57.306 H 0 **** 0.1268
4524 H88 51.2571 70.0371 50.0228 H 0 **** 0.41
4525 H89 54.4605 68.8156 50.4718 H 0 **** 0.053
4526 H90 55.9437 69.6401 50.9522 H 0 **** 0.053
4527 H91 55.288 69.8724 49.3078 H 0 **** 0.053
4528 H92 50.1535 77.1176 53.2163 H 0 **** 0.41
4529 H93 46.6061 81.826 54.3149 H 0 **** 0.053
4530 H94 44.8603 83.1077 55.5402 H 0 **** 0.053
4531 H95 46.2538 84.1668 55.2256 H 0 **** 0.053
4532 H96 45.9986 83.4686 56.8554 H 0 **** 0.053
4533 H97 55.005 84.7612 56.1558 H 0 **** 0.41
4534 H98 60.7119 78.6887 55.0912 H 0 **** 0.41
4535 H99 49.1728 85.3106 57.6232 H 0 **** 0.41
4536 H100 55.647 80.116 56.3237 H 0 **** 0.053
4537 H101 58.7463 77.8317 55.8106 H 0 **** 0.053
4538 H102 46.471 81.1745 55.9461 H 0 **** 0.053
4539 C1 67.5694 44.5081 23.9118 C.ar 0 **** 0.042
4540 C2 68.0919 43.4187 23.2399 C.ar 0 **** -0.1268
4541 C3 69.445 43.1299 23.3057 C.ar 0 **** 0
4542 C4 70.3147 43.9292 24.049 C.ar 0 **** 0
4543 C5 69.7741 45.0205 24.7357 C.ar 0 **** -0.1268
4544 C6 68.4229 45.3253 24.6659 C.ar 0 **** 0
4545 C7 71.6476 43.3637 23.9067 C.ar 0 **** 0
4546 C8 71.5452 42.2424 23.1021 C.ar 0 **** 0
4547 C9 70.1512 41.9875 22.6412 C.3 0 **** -0.106
4548 C10 72.6769 41.4887 22.8109 C.ar 0 **** 0
4549 C11 73.9373 41.8529 23.3293 C.ar 0 **** 0
4550 C12 73.9834 43.0185 24.1424 C.ar 0 **** 0
4551 C13 72.847 43.7846 24.4246 C.ar 0 **** 0
4552 C14 72.9501 45.0074 25.2924 C.3 0 **** -0.106
4553 C15 74.3114 45.6828 25.1248 C.3 0 **** -0.106
4554 C16 75.3652 44.6967 25.5495 C.3 0 **** -0.106
4555 C17 75.339 43.4377 24.7087 C.ar 0 **** 0
4556 C18 76.4721 42.7207 24.4949 C.ar 0 **** 0
4557 C19 76.4425 41.5808 23.7418 C.ar 0 **** 0
4558 C20 75.1157 41.0774 23.0483 C.ar 0 **** 0
4559 C21 74.9546 39.9453 22.1529 C.ar 0 **** 0
4560 C22 73.661 39.6433 21.7143 C.ar 0 **** 0
4561 C23 72.5578 40.3665 22.0073 C.ar 0 **** 0.042
4562 C24 77.7223 40.7791 23.5546 C.3 0 **** -0.106
4563 C25 78.9328 41.1829 24.4462 C.ar 0 **** 0
4564 C26 78.9113 42.3561 25.1594 C.ar 0 **** 0
4565 C27 77.7338 43.2752 25.1505 C.3 0 **** -0.106
4566 C28 80.0157 42.7439 25.9152 C.ar 0 **** 0.042
4567 C29 81.1718 41.9845 25.9695 C.ar 0 **** 0
4568 C30 81.1706 40.798 25.2525 C.ar 0 **** 0
4569 C31 80.076 40.3897 24.4949 C.ar 0 **** 0
4570 C32 82.3929 39.8657 25.241 C.ar 0 **** 0
4571 C33 83.571 40.3681 26.0816 C.3 0 **** -0.106
4572 C34 83.6446 41.8924 26.1395 C.3 0 **** -0.106
4573 C35 82.3648 42.4116 26.7907 C.3 0 **** -0.106
4574 C36 80.1817 39.0747 23.7495 C.ar 0 **** -0.1268
4575 C37 81.323 38.34 23.8186 C.ar 0 **** 0.0265
4576 C38 82.3962 38.7098 24.5316 C.ar 0 **** -0.1268
4577 C39 73.5093 38.4549 20.8391 C.3 0 **** -0.106
4578 C40 74.9549 38.087 20.7551 C.ar 0 **** 0
4579 C41 75.7811 38.9294 21.5017 C.ar 0 **** 0
4580 C42 77.1618 38.6538 21.4167 C.ar 0 **** -0.1268
4581 C43 77.6614 37.5704 20.6643 C.ar 0 **** 0
4582 C44 76.792 36.7283 19.9387 C.ar 0 **** 0
4583 C45 75.4169 37.0079 19.9847 C.ar 0 **** 0
4584 C46 74.533 36.1976 19.2391 C.ar 0 **** -0.1268
4585 C47 74.9693 35.1324 18.4663 C.ar 0 **** 0
4586 C48 76.3278 34.8766 18.4315 C.ar 0 **** -0.1268
4587 C49 77.2569 35.6484 19.1493 C.ar 0 **** 0
4588 C50 78.6398 35.3965 19.1059 C.ar 0 **** 0.042
4589 C51 79.5162 36.1968 19.8119 C.ar 0 **** -0.1268
4590 C52 79.0476 37.2668 20.5694 C.ar 0 **** -0.1268
4591 O53 66.227 44.7972 23.851 O.3 0 **** -0.452
4592 C54 67.8634 46.5177 25.4265 C.3 0 **** -0.159
4593 O55 71.3645 39.9912 21.5149 O.3 0 **** -0.452
4594 C56 73.9017 34.351 17.7082 C.3 0 **** -0.106
4595 C57 74.4528 33.0931 17.0283 C.3 0 **** -0.159
4596 O58 81.3731 37.1858 23.1335 O.3 0 **** -0.4365
4597 O59 80.0244 43.9028 26.6429 O.3 0 **** -0.452
4598 O60 79.209 34.4016 18.3974 O.3 0 **** -0.452
4599 H61 67.4457 42.7429 22.6337 H 0 **** 0.1268
4600 H62 70.3659 45.6924 25.3721 H 0 **** 0.1268
4601 H63 70.0302 42.0527 21.5447 H 0 **** 0.053
4602 H64 69.7352 41.0279 22.9994 H 0 **** 0.053
4603 H65 72.1995 45.7484 25.0329 H 0 **** 0.053
4604 H66 72.818 44.7398 26.364 H 0 **** 0.053
4605 H67 74.4553 46.0126 24.067 H 0 **** 0.053
4606 H68 74.3646 46.621 25.7523 H 0 **** 0.053
4607 H69 76.3419 45.1923 25.4872 H 0 **** 0.053
4608 H70 75.2043 44.4411 26.6117 H 0 **** 0.053
4609 H71 77.4941 39.7128 23.7636 H 0 **** 0.053
4610 H72 77.4793 43.5052 26.19 H 0 **** 0.053
4611 H73 83.4694 39.9653 27.11 H 0 **** 0.053
4612 H74 84.4888 39.9359 25.6593 H 0 **** 0.053
4613 H75 84.5211 42.203 26.7215 H 0 **** 0.053
4614 H76 83.7638 42.3092 25.1292 H 0 **** 0.053
4615 H77 82.2656 42.0056 27.8065 H 0 **** 0.053
4616 H78 82.3953 43.492 26.8766 H 0 **** 0.053
4617 H79 79.3277 38.7484 23.1874 H 0 **** 0.1268
4618 H80 83.2869 38.1028 24.5751 H 0 **** 0.1268
4619 H81 72.9232 37.6453 21.302 H 0 **** 0.053
4620 H82 73.1082 38.6963 19.8417 H 0 **** 0.053
4621 H83 77.9415 39.2395 21.8813 H 0 **** 0.1268
4622 H84 73.4482 36.4091 19.2648 H 0 **** 0.1268
4623 H85 76.6754 34.0465 17.8218 H 0 **** 0.1268
4624 H86 80.6043 36.0209 19.789 H 0 **** 0.1268
4625 H87 79.7744 37.9361 21.1104 H 0 **** 0.1268
4626 H88 65.8105 44.1461 23.3025 H 0 **** 0.41
4627 H89 67.0263 46.9709 24.8827 H 0 **** 0.053
4628 H90 68.6168 47.305 25.568 H 0 **** 0.053
4629 H91 67.4939 46.2065 26.4167 H 0 **** 0.053
4630 H92 71.4552 39.2137 20.9817 H 0 **** 0.41
4631 H93 73.1048 34.0533 18.3974 H 0 **** 0.053
4632 H94 73.6535 32.5423 16.4942 H 0 **** 0.053
4633 H95 74.8978 32.3931 17.7609 H 0 **** 0.053
4634 H96 75.2259 33.3395 16.2767 H 0 **** 0.053
4635 H97 80.5351 36.9784 22.7516 H 0 **** 0.41
4636 H98 79.2053 44.3591 26.5378 H 0 **** 0.41
4637 H99 78.534 33.9098 17.9473 H 0 **** 0.41
4638 H100 78.0471 40.9491 22.5079 H 0 **** 0.053
4639 H101 78.0006 44.2025 24.6303 H 0 **** 0.053
4640 H102 73.4486 34.9943 16.9453 H 0 **** 0.053
4641 C 13.8768 30.2405 80.0668 C.3 0 **** 0.054
4642 C 14.8343 29.5763 79.0357 C.3 0 **** -0.106
4643 C 16.3068 30.0092 79.2795 C.3 0 **** -0.053
4644 C 16.3196 31.5127 79.647 C.3 0 **** -0.053
4645 C 15.4352 31.7628 80.9055 C.3 0 **** 0.054
4646 O 14.5889 30.6654 81.2172 O.3 0 **** -0.32
4647 C 15.8559 32.3832 78.442 C.3 0 **** -0.053
4648 C 16.3556 31.8184 77.0577 C.3 0 **** 0.107
4649 C 17.576 30.9274 77.2548 C.3 0 **** -0.106
4650 C 17.249 29.6814 78.0944 C.3 0 **** -0.106
4651 O 16.7194 32.8263 76.108 O.3 0 **** -0.32
4652 C 15.779 33.889 76.1211 C.3 0 **** 0.107
4653 C 16.0623 34.7375 77.3895 C.3 0 **** -0.053
4654 C 16.3039 33.8459 78.6346 C.3 0 **** -0.106
4655 C 15.0431 35.8077 77.6865 C.2 0 **** 0
4656 C 13.6046 35.4737 77.3175 C.3 0 **** 0
4657 C 13.4216 34.6201 76.0632 C.3 0 **** 0
4658 C 14.3415 33.4137 75.921 C.3 0 **** -0.053
4659 C 11.979 34.2915 75.7336 C.3 0 **** 0
4660 C 11.1402 35.5623 75.6526 C.3 0 **** 0
4661 C 11.2988 36.3549 77.0039 C.3 0 **** 0.16
4662 C 12.7367 36.7157 77.3054 C.3 0 **** 0
4663 C 12.8981 37.6398 78.5433 C.3 0 **** -0.106
4664 C 14.3307 38.1422 78.4464 C.3 0 **** -0.106
4665 C 15.3376 37.0226 78.2072 C.2 0 **** -0.1268
4666 O 10.3751 37.4184 77.3251 O.3 0 **** -0.32
4667 C 9.44418 37.6531 76.2906 C.3 0 **** 0.16
4668 C 8.72712 36.393 75.7016 C.3 0 **** 0
4669 C 9.65825 35.1984 75.3731 C.3 0 **** 0
4670 C 14.0873 32.7534 74.5909 C.2 0 **** 0
4671 C 12.7188 32.1362 74.5244 C.3 0 **** -0.053
4672 C 11.7848 33.3802 74.5092 C.3 0 **** 0
4673 C 12.384 31.3057 73.3053 C.2 0 **** 0
4674 C 13.1704 31.4425 72.2056 C.2 0 **** 0
4675 C 14.4615 32.2476 72.1849 C.3 0 **** -0.106
4676 C 14.8858 32.8112 73.5311 C.2 0 **** -0.1268
4677 C 12.9145 30.6224 70.9624 C.3 0 **** -0.106
4678 C 11.4158 30.4179 70.7948 C.3 0 **** -0.106
4679 C 10.8225 29.9707 72.1195 C.2 0 **** 0
4680 C 11.3379 30.4188 73.3098 C.2 0 **** 0
4681 C 10.6811 29.9964 74.6104 C.3 0 **** -0.106
4682 C 9.76856 28.7863 74.4726 C.3 0 **** -0.053
4683 C 8.7931 29.0125 73.3049 C.3 0 **** -0.106
4684 C 9.5788 29.1169 71.9932 C.3 0 **** -0.106
4685 C 9.54788 34.4376 74.0455 C.3 0 **** 0.147
4686 C 10.2913 33.1164 74.1759 C.3 0 **** -0.053
4687 C 7.66995 36.6944 74.6335 C.3 0 **** 0
4688 C 6.96971 35.4831 74.0046 C.3 0 **** 0.147
4689 S 7.87823 34.0674 73.4322 S.3 0 **** -0.294
4690 C 5.85165 35.817 73.0557 C.3 0 **** -0.053
4691 C 4.85872 36.7454 73.7678 C.3 0 **** 0
4692 C 5.55897 38.0477 74.3155 C.3 0 **** 0
4693 C 6.6659 37.6632 75.3186 C.3 0 **** 0
4694 C 4.51192 38.9164 74.9971 C.3 0 **** 0
4695 C 3.43308 39.2844 73.9984 C.3 0 **** 0
4696 C 2.7126 38.0251 73.357 C.3 0 **** 0
4697 C 3.79388 37.1037 72.6829 C.3 0 **** -0.053
4698 C 1.73418 38.5561 72.2722 C.3 0 **** 0
4699 C 0.6284 39.2899 72.9989 C.3 0 **** 0.16
4700 C 1.14595 40.427 73.885 C.3 0 **** 0
4701 C 2.52784 40.3882 74.4707 C.3 0 **** 0
4702 C 7.33603 38.8727 76.0234 C.3 0 **** 0
4703 C 8.41492 38.473 77.0253 C.3 0 **** -0.053
4704 C 5.01473 40.0373 75.9335 C.3 0 **** 0
4705 C 6.50003 40.1551 76.2836 C.3 0 **** 0
4706 C 2.81935 41.1904 75.7391 C.3 0 **** 0
4707 C 4.33698 41.4094 75.8838 C.3 0 **** 0
4708 C 0.284844 41.6633 74.1462 C.3 0 **** 0
4709 C 0.683607 42.3885 75.4707 C.3 0 **** 0
4710 C 2.19744 42.6078 75.6478 C.3 0 **** 0
4711 O -0.362426 39.6426 72.0582 O.3 0 **** -0.32
4712 C -1.17699 38.4716 72.0205 C.3 0 **** 0.107
4713 C -0.303749 37.2122 71.7146 C.3 0 **** -0.053
4714 C 1.07648 37.6354 71.2162 C.3 0 **** 0.107
4715 C -1.00108 36.306 70.6894 C.3 0 **** -0.106
4716 C -2.51225 36.2488 70.979 C.3 0 **** -0.106
4717 C -3.17207 37.6039 70.662 C.3 0 **** 0.134
4718 C -2.22423 38.7928 70.9751 C.3 0 **** -0.053
4719 C -3.00016 40.0703 71.381 C.3 0 **** -0.106
4720 C -4.30289 40.1543 70.5961 C.3 0 **** -0.106
4721 C -5.19653 38.9077 70.8764 C.3 0 **** 0.081
4722 N -4.45548 37.7295 71.3231 N.3 0 **** -0.727
4723 C 6.74748 40.9819 77.5739 C.3 0 **** 0.16
4724 C 6.11501 42.3547 77.407 C.3 0 **** 0.16
4725 C 4.63238 42.1717 77.2538 C.3 0 **** 0
4726 O 6.3817 43.2604 78.4564 O.3 0 **** -0.32
4727 C 7.77851 43.281 78.7299 C.3 0 **** 0.107
4728 C 8.22506 41.9011 79.104 C.3 0 **** 0.107
4729 O 8.11307 41.0949 77.9432 O.3 0 **** -0.32
4730 C 7.40981 41.3191 80.2878 C.3 0 **** -0.106
4731 C 6.86852 42.4382 81.2233 C.3 0 **** -0.106
4732 C 7.83991 43.6354 81.2347 C.3 0 **** -0.106
4733 C 7.97515 44.2915 79.8315 C.3 0 **** -0.106
4734 C 2.47023 43.4261 76.9876 C.3 0 **** 0
4735 C 4.01299 43.6044 77.1564 C.3 0 **** -0.053
4736 C 0.0241619 43.7775 75.4821 C.3 0 **** 0
4737 C 0.383022 44.5889 76.7433 C.3 0 **** 0.16
4738 C 1.82966 44.8018 76.9584 C.3 0 **** -0.053
4739 C -1.53059 43.5144 75.3926 C.3 0 **** 0
4740 C -1.884 42.7306 74.063 C.3 0 **** 0
4741 C -1.23484 41.3433 74.1855 C.3 0 **** -0.053
4742 O -0.254161 45.8169 76.8756 O.3 0 **** -0.32
4743 C -1.64111 45.6557 76.6004 C.3 0 **** 0.16
4744 C -2.05882 44.9383 75.2483 C.3 0 **** 0
4745 C -3.40229 42.5826 73.7651 C.3 0 **** -0.053
4746 C -4.07945 43.944 73.9086 C.3 0 **** -0.053
4747 C -3.58171 44.7919 75.1388 C.3 0 **** 0
4748 C -5.53202 43.7733 74.1961 C.3 0 **** -0.053
4749 C -6.10842 42.6406 73.3885 C.3 0 **** -0.106
4750 C -5.52231 41.305 73.9299 C.3 0 **** -0.106
4751 C -4.14445 41.5109 74.5923 C.3 0 **** -0.106
4752 C -4.15665 46.1862 75.057 C.3 0 **** 0
4753 C -3.68897 47.1161 76.2156 C.3 0 **** 0
4754 C -2.2267 47.0401 76.647 C.3 0 **** 0
4755 C -6.10211 45.1406 73.8279 C.3 0 **** 0
4756 C -5.65916 46.1711 74.8825 C.3 0 **** 0
4757 C 9.07789 28.4288 75.8141 C.3 0 **** -0.053
4758 C 7.95961 29.4095 76.1967 C.3 0 **** -0.159
4759 C 8.53848 26.9938 75.7981 C.3 0 **** -0.159
4760 O 1.84343 36.5027 70.831 O.3 0 **** -0.57
4761 C -1.52939 48.1922 77.4242 C.3 0 **** -0.053
4762 C -2.46009 49.2644 77.9995 C.3 0 **** -0.053
4763 C -3.55598 49.6205 76.9788 C.3 0 **** 0
4764 C -4.42571 48.4035 76.5355 C.3 0 **** 0
4765 C -5.66451 48.603 75.6801 C.3 0 **** 0
4766 C -6.30471 49.9595 75.7194 C.3 0 **** 0
4767 C -5.69049 51.0098 76.6786 C.3 0 **** 0
4768 C -4.46603 50.7005 77.5731 C.3 0 **** -0.053
4769 C -6.43807 52.3157 76.9103 C.3 0 **** -0.053
4770 C -7.87082 52.446 76.3486 C.3 0 **** -0.053
4771 C -8.30222 51.4659 75.2141 C.3 0 **** 0
4772 C -7.82547 50.0059 75.4319 C.3 0 **** 0
4773 C -8.19004 49.0769 74.2088 C.3 0 **** 0
4774 C -7.68885 47.6064 74.4707 C.3 0 **** 0
4775 C -6.15645 47.5854 74.6447 C.3 0 **** 0
4776 C -9.73742 49.1034 73.9971 C.3 0 **** 0
4777 C -10.1839 50.5929 73.7517 C.3 0 **** -0.053
4778 C -9.81571 51.5075 74.936 C.3 0 **** -0.053
4779 C -7.63384 45.1716 73.6475 C.3 0 **** -0.053
4780 C -8.01142 46.6675 73.2396 C.3 0 **** 0
4781 C -10.1207 48.1936 72.7428 C.3 0 **** 0.02
4782 C -9.54712 46.7399 72.8867 C.3 0 **** 0
4783 C -9.91404 45.6898 71.8114 C.3 0 **** -0.106
4784 C -10.837 46.3066 70.7986 C.3 0 **** -0.106
4785 C -11.9889 47.016 71.5014 C.3 0 **** -0.086
4786 C -11.6158 48.0923 72.4532 C.2 0 **** 0.379
4787 O -12.4666 48.857 72.8745 O.2 0 **** -0.419
4788 H 13.1155 29.5278 80.4119 H 0 **** 0.053
4789 H 13.3314 31.0794 79.6072 H 0 **** 0.053
4790 H 14.7764 28.4708 79.0767 H 0 **** 0.053
4791 H 14.5233 29.8409 78.008 H 0 **** 0.053
4792 H 16.6518 29.4565 80.1683 H 0 **** 0.053
4793 H 17.365 31.8018 79.8614 H 0 **** 0.053
4794 H 14.8406 32.6866 80.7972 H 0 **** 0.053
4795 H 16.0688 31.9059 81.7878 H 0 **** 0.053
4796 H 14.7524 32.3737 78.4646 H 0 **** 0.053
4797 H 15.5653 31.1841 76.6157 H 0 **** 0.053
4798 H 18.3589 31.5366 77.7449 H 0 **** 0.053
4799 H 17.9741 30.6497 76.2659 H 0 **** 0.053
4800 H 18.1836 29.2377 78.464 H 0 **** 0.053
4801 H 16.781 28.9259 77.4475 H 0 **** 0.053
4802 H 16.0377 34.5327 75.2779 H 0 **** 0.053
4803 H 16.9995 35.2729 77.2003 H 0 **** 0.053
4804 H 15.8527 34.2595 79.5631 H 0 **** 0.053
4805 H 17.3936 33.8232 78.812 H 0 **** 0.053
4806 H 14.0435 32.6822 76.6875 H 0 **** 0.053
4807 H 12.1745 38.477 78.488 H 0 **** 0.053
4808 H 12.6914 37.0917 79.486 H 0 **** 0.053
4809 H 14.6 38.7222 79.3324 H 0 **** 0.053
4810 H 14.3879 38.8231 77.577 H 0 **** 0.053
4811 H 16.3526 37.2669 78.5047 H 0 **** 0.1268
4812 H 12.5373 31.555 75.4607 H 0 **** 0.053
4813 H 14.3817 33.091 71.4358 H 0 **** 0.053
4814 H 15.2945 31.5851 71.814 H 0 **** 0.053
4815 H 15.8608 33.2883 73.5667 H 0 **** 0.1268
4816 H 13.3637 31.0941 70.0616 H 0 **** 0.053
4817 H 13.4169 29.6481 71.0993 H 0 **** 0.053
4818 H 11.1993 29.6901 69.9879 H 0 **** 0.053
4819 H 10.9381 31.3714 70.4982 H 0 **** 0.053
4820 H 11.4701 29.7487 75.336 H 0 **** 0.053
4821 H 10.1113 30.8363 75.0531 H 0 **** 0.053
4822 H 10.4136 27.924 74.2053 H 0 **** 0.053
4823 H 8.23214 29.9456 73.4737 H 0 **** 0.053
4824 H 8.05098 28.2049 73.2303 H 0 **** 0.053
4825 H 8.91673 29.5069 71.1852 H 0 **** 0.053
4826 H 9.89068 28.0965 71.6753 H 0 **** 0.053
4827 H 10.1479 32.5144 73.2136 H 0 **** 0.053
4828 H 5.32948 34.9329 72.5804 H 0 **** 0.053
4829 H 3.30639 36.117 72.3996 H 0 **** 0.053
4830 H 8.95511 39.3418 77.5038 H 0 **** 0.053
4831 H -1.66958 38.3589 73.001 H 0 **** 0.053
4832 H -0.190996 36.61 72.6397 H 0 **** 0.053
4833 H 0.941409 38.2781 70.3574 H 0 **** 0.053
4834 H -0.837489 36.7091 69.6662 H 0 **** 0.053
4835 H -0.539219 35.2921 70.7012 H 0 **** 0.053
4836 H -2.63338 36.0068 72.0479 H 0 **** 0.053
4837 H -3.00678 35.444 70.4127 H 0 **** 0.053
4838 H -3.36098 37.6231 69.5764 H 0 **** 0.053
4839 H -1.64663 39.0241 70.0565 H 0 **** 0.053
4840 H -3.25968 39.9874 72.4467 H 0 **** 0.053
4841 H -2.36972 40.9684 71.2567 H 0 **** 0.053
4842 H -4.04137 40.2112 69.5238 H 0 **** 0.053
4843 H -4.84928 41.0859 70.8225 H 0 **** 0.053
4844 H -5.749 38.6411 69.9612 H 0 **** 0.053
4845 H -5.96689 39.1522 71.6284 H 0 **** 0.053
4846 H -4.30783 37.7673 72.312 H 0 **** 0.353
4847 H 8.28874 43.573 77.8123 H 0 **** 0.053
4848 H 9.27311 41.9234 79.3912 H 0 **** 0.053
4849 H 6.54647 40.7134 79.9397 H 0 **** 0.053
4850 H 8.0222 40.6072 80.8805 H 0 **** 0.053
4851 H 6.70216 42.0489 82.2482 H 0 **** 0.053
4852 H 5.87586 42.777 80.8643 H 0 **** 0.053
4853 H 8.83 43.2576 81.5437 H 0 **** 0.053
4854 H 7.53248 44.3878 81.9836 H 0 **** 0.053
4855 H 8.9355 44.8339 79.7519 H 0 **** 0.053
4856 H 7.17229 45.0545 79.71 H 0 **** 0.053
4857 H 4.20278 44.1943 78.1182 H 0 **** 0.053
4858 H 2.09243 45.3833 77.8665 H 0 **** 0.053
4859 H -1.55544 40.7484 73.2841 H 0 **** 0.053
4860 H -3.43687 42.277 72.7283 H 0 **** 0.053
4861 H -3.90164 44.516 72.9769 H 0 **** 0.053
4862 H -5.72567 43.5715 75.2711 H 0 **** 0.053
4863 H -5.82859 42.7873 72.3281 H 0 **** 0.053
4864 H -7.21812 42.5807 73.42 H 0 **** 0.053
4865 H -5.41911 40.5785 73.0991 H 0 **** 0.053
4866 H -6.23179 40.8496 74.6472 H 0 **** 0.053
4867 H -3.59862 40.5512 74.6391 H 0 **** 0.053
4868 H -4.2539 41.861 75.6269 H 0 **** 0.053
4869 H 9.85212 28.4764 76.6034 H 0 **** 0.053
4870 H 7.57523 29.1911 77.2058 H 0 **** 0.053
4871 H 7.11475 29.3338 75.4927 H 0 **** 0.053
4872 H 8.30195 30.4568 76.1935 H 0 **** 0.053
4873 H 9.33932 26.2689 75.5817 H 0 **** 0.053
4874 H 7.7597 26.8739 75.0287 H 0 **** 0.053
4875 H 8.09724 26.7247 76.7702 H 0 **** 0.053
4876 H 2.68317 36.8494 70.5354 H 0 **** 0.41
4877 H -0.623418 47.9084 78.0303 H 0 **** 0.053
4878 H -1.88479 50.166 78.3492 H 0 **** 0.053
4879 H -3.9237 51.6259 77.9099 H 0 **** 0.053
4880 H -5.97505 53.118 77.5391 H 0 **** 0.053
4881 H -8.3108 53.4743 76.3384 H 0 **** 0.053
4882 H -11.2817 50.6854 73.5339 H 0 **** 0.053
4883 H -10.1773 52.5547 74.8141 H 0 **** 0.053
4884 H -7.97098 44.4413 72.826 H 0 **** 0.053
4885 H -9.01267 45.2731 71.3286 H 0 **** 0.053
4886 H -10.3894 44.8922 72.3801 H 0 **** 0.053
4887 H -11.2225 45.5392 70.1296 H 0 **** 0.053
4888 H -10.2647 47.0223 70.1741 H 0 **** 0.053
4889 H -12.5561 46.3211 72.1259 H 0 **** 0.053
4890 H -12.673 47.5513 70.8467 H 0 **** 0.053
4891 C 96.8522 68.2 43.3047 C.3 0 **** 0.054
4892 C 97.1826 68.4315 44.8074 C.3 0 **** -0.106
4893 C 97.9133 67.2023 45.4155 C.3 0 **** -0.053
4894 C 97.2638 65.9172 44.8479 C.3 0 **** -0.053
4895 C 97.3476 65.9187 43.2918 C.3 0 **** 0.054
4896 O 97.6816 67.1903 42.754 O.3 0 **** -0.32
4897 C 95.7932 65.7738 45.3399 C.3 0 **** -0.053
4898 C 95.5991 66.2677 46.8243 C.3 0 **** 0.107
4899 C 96.9261 66.2401 47.5729 C.3 0 **** -0.106
4900 C 97.9503 67.2123 46.9641 C.3 0 **** -0.106
4901 O 94.6693 65.4898 47.5863 O.3 0 **** -0.32
4902 C 93.5252 65.1737 46.8087 C.3 0 **** 0.107
4903 C 93.9341 64.0417 45.8288 C.3 0 **** -0.053
4904 C 95.3134 64.3174 45.1765 C.3 0 **** -0.106
4905 C 92.9057 63.6968 44.7823 C.2 0 **** 0
4906 C 92.0641 64.8584 44.2724 C.3 0 **** 0
4907 C 91.7238 65.935 45.3022 C.3 0 **** 0
4908 C 92.8644 66.4065 46.1956 C.3 0 **** -0.053
4909 C 90.8997 67.0852 44.7583 C.3 0 **** 0
4910 C 89.638 66.5698 44.0745 C.3 0 **** 0
4911 C 90.0565 65.5328 42.9659 C.3 0 **** 0.16
4912 C 90.8426 64.3663 43.5229 C.3 0 **** 0
4913 C 91.1205 63.2502 42.4791 C.3 0 **** -0.106
4914 C 91.5898 62.069 43.3153 C.3 0 **** -0.106
4915 C 92.6729 62.4454 44.32 C.2 0 **** -0.1268
4916 O 89.1005 65.1342 41.9586 O.3 0 **** -0.32
4917 C 87.8311 65.7173 42.1606 C.3 0 **** 0.16
4918 C 87.8091 67.2583 42.4323 C.3 0 **** 0
4919 C 88.8408 67.7582 43.4751 C.3 0 **** 0
4920 C 92.3273 67.3876 47.205 C.2 0 **** 0
4921 C 91.8658 68.6624 46.5566 C.3 0 **** -0.053
4922 C 90.6037 68.2063 45.7698 C.3 0 **** 0
4923 C 91.4459 69.7973 47.4643 C.2 0 **** 0
4924 C 91.1747 69.5069 48.7638 C.2 0 **** 0
4925 C 91.4326 68.1476 49.3974 C.3 0 **** -0.106
4926 C 92.1319 67.1435 48.4959 C.2 0 **** -0.1268
4927 C 90.7798 70.5949 49.7354 C.3 0 **** -0.106
4928 C 89.946 71.6398 49.0082 C.3 0 **** -0.106
4929 C 90.6382 72.0141 47.7092 C.2 0 **** 0
4930 C 91.3657 71.0873 47.0057 C.2 0 **** 0
4931 C 91.9933 71.4835 45.6826 C.3 0 **** -0.106
4932 C 92.0936 72.9881 45.4768 C.3 0 **** -0.053
4933 C 90.7263 73.6343 45.7575 C.3 0 **** -0.106
4934 C 90.3499 73.4201 47.2277 C.3 0 **** -0.106
4935 C 88.4455 68.7374 44.5879 C.3 0 **** 0.147
4936 C 89.7107 69.3346 45.186 C.3 0 **** -0.053
4937 C 86.4096 67.8676 42.5721 C.3 0 **** 0
4938 C 86.3458 69.3699 42.8751 C.3 0 **** 0.147
4939 S 87.3499 70.115 44.1375 S.3 0 **** -0.294
4940 C 84.962 69.9589 42.8802 C.3 0 **** -0.053
4941 C 84.2726 69.6138 41.5533 C.3 0 **** 0
4942 C 84.2365 68.0586 41.2954 C.3 0 **** 0
4943 C 85.6747 67.5028 41.2519 C.3 0 **** 0
4944 C 83.5331 67.7984 39.9713 C.3 0 **** 0
4945 C 82.123 68.3504 40.0315 C.3 0 **** 0
4946 C 82.0681 69.9052 40.3418 C.3 0 **** 0
4947 C 82.8259 70.1861 41.6906 C.3 0 **** -0.053
4948 C 80.5706 70.2919 40.4975 C.3 0 **** 0
4949 C 79.9382 70.1609 39.1292 C.3 0 **** 0.16
4950 C 80.0908 68.7593 38.5308 C.3 0 **** 0
4951 C 81.2424 67.8737 38.9098 C.3 0 **** 0
4952 C 85.7667 66.0008 40.8718 C.3 0 **** 0
4953 C 87.1971 65.4731 40.8153 C.3 0 **** -0.053
4954 C 83.7159 66.4059 39.3281 C.3 0 **** 0
4955 C 84.6987 65.394 39.922 C.3 0 **** 0
4956 C 81.6827 66.774 37.9433 C.3 0 **** 0
4957 C 82.5056 65.7123 38.6968 C.3 0 **** 0
4958 C 79.0356 68.2027 37.5742 C.3 0 **** 0
4959 C 79.6143 67.0903 36.6431 C.3 0 **** 0
4960 C 80.4537 66.0229 37.3691 C.3 0 **** 0
4961 O 78.6209 70.6618 39.1998 O.3 0 **** -0.32
4962 C 78.8127 72.0565 38.9673 C.3 0 **** 0.107
4963 C 79.8621 72.6351 39.9705 C.3 0 **** -0.053
4964 C 80.1138 71.6413 41.1025 C.3 0 **** 0.107
4965 C 79.3924 73.988 40.525 C.3 0 **** -0.106
4966 C 78.7323 74.815 39.4064 C.3 0 **** -0.106
4967 C 77.3864 74.1881 38.997 C.3 0 **** 0.134
4968 C 77.4206 72.639 39.0917 C.3 0 **** -0.053
4969 C 76.4744 71.9676 38.0656 C.3 0 **** -0.106
4970 C 75.2257 72.82 37.8802 C.3 0 **** -0.106
4971 C 75.6014 74.2438 37.3675 C.3 0 **** 0.081
4972 N 76.9667 74.6541 37.6906 N.3 0 **** -0.727
4973 C 85.1122 64.2944 38.9074 C.3 0 **** 0.16
4974 C 83.8591 63.6024 38.3943 C.3 0 **** 0.16
4975 C 83.0304 64.618 37.6613 C.3 0 **** 0
4976 O 84.0977 62.4866 37.5633 O.3 0 **** -0.32
4977 C 85.0417 61.6196 38.1825 C.3 0 **** 0.107
4978 C 86.3136 62.3726 38.4247 C.3 0 **** 0.107
4979 O 86.0406 63.349 39.4157 O.3 0 **** -0.32
4980 C 86.8752 63.0119 37.1283 C.3 0 **** -0.106
4981 C 86.4631 62.2087 35.8613 C.3 0 **** -0.106
4982 C 86.3302 60.7112 36.2031 C.3 0 **** -0.106
4983 C 85.21 60.4477 37.2488 C.3 0 **** -0.106
4984 C 80.9155 64.904 36.3327 C.3 0 **** 0
4985 C 81.7904 63.8548 37.0904 C.3 0 **** -0.053
4986 C 78.4403 66.3586 35.972 C.3 0 **** 0
4987 C 78.9094 65.2154 35.0496 C.3 0 **** 0.16
4988 C 79.7363 64.1819 35.707 C.3 0 **** -0.053
4989 C 77.6538 67.463 35.1619 C.3 0 **** 0
4990 C 77.132 68.5975 36.1353 C.3 0 **** 0
4991 C 78.3771 69.3019 36.6958 C.3 0 **** -0.053
4992 O 77.9116 64.57 34.329 O.3 0 **** -0.32
4993 C 77.0538 65.5432 33.7439 C.3 0 **** 0.16
4994 C 76.4437 66.6666 34.6836 C.3 0 **** 0
4995 C 76.1783 69.6395 35.4868 C.3 0 **** -0.053
4996 C 75.087 68.9083 34.7078 C.3 0 **** -0.053
4997 C 75.5962 67.6654 33.8856 C.3 0 **** 0
4998 C 74.5249 69.7928 33.6478 C.3 0 **** -0.053
4999 C 74.382 71.2055 34.1491 C.3 0 **** -0.106
5000 C 75.8052 71.8053 34.3361 C.3 0 **** -0.106
5001 C 76.8576 70.7102 34.606 C.3 0 **** -0.106
5002 C 74.413 66.904 33.3365 C.3 0 **** 0
5003 C 74.8158 65.6299 32.5362 C.3 0 **** 0
5004 C 75.945 64.7652 33.0905 C.3 0 **** 0
5005 C 73.1933 69.1179 33.3295 C.3 0 **** 0
5006 C 73.4632 67.8027 32.5759 C.3 0 **** 0
5007 C 92.6881 73.3422 44.0891 C.3 0 **** -0.053
5008 C 91.7051 73.1041 42.9334 C.3 0 **** -0.159
5009 C 93.2025 74.7861 44.0552 C.3 0 **** -0.159
5010 O 80.9831 72.1981 42.0793 O.3 0 **** -0.57
5011 C 76.1279 63.2763 32.6814 C.3 0 **** -0.053
5012 C 75.3111 62.8146 31.4706 C.3 0 **** -0.053
5013 C 73.8853 63.3908 31.5397 C.3 0 **** 0
5014 C 73.8361 64.9491 31.5986 C.3 0 **** 0
5015 C 72.5159 65.6907 31.484 C.3 0 **** 0
5016 C 71.3879 64.9673 30.8088 C.3 0 **** 0
5017 C 71.6883 63.5625 30.2283 C.3 0 **** 0
5018 C 73.0868 62.9068 30.3249 C.3 0 **** -0.053
5019 C 70.6403 62.894 29.3493 C.3 0 **** -0.053
5020 C 69.421 63.7304 28.9028 C.3 0 **** -0.053
5021 C 69.0818 65.0176 29.7162 C.3 0 **** 0
5022 C 70.3262 65.8542 30.1135 C.3 0 **** 0
5023 C 69.9442 67.0847 31.0255 C.3 0 **** 0
5024 C 71.2343 67.9054 31.405 C.3 0 **** 0
5025 C 72.2218 67.0186 32.1908 C.3 0 **** 0
5026 C 68.9231 67.9846 30.259 C.3 0 **** 0
5027 C 67.6627 67.1142 29.8956 C.3 0 **** -0.053
5028 C 68.0326 65.9022 29.0189 C.3 0 **** -0.053
5029 C 72.1968 69.998 32.5471 C.3 0 **** -0.053
5030 C 70.8773 69.1221 32.3503 C.3 0 **** 0
5031 C 68.5009 69.2177 31.1806 C.3 0 **** 0.02
5032 C 69.754 70.0124 31.6917 C.3 0 **** 0
5033 C 69.5268 71.3052 32.5106 C.3 0 **** -0.106
5034 C 68.0532 71.5758 32.6272 C.3 0 **** -0.106
5035 C 67.3946 71.4956 31.2547 C.3 0 **** -0.086
5036 C 67.5382 70.2078 30.5306 C.2 0 **** 0.379
5037 O 66.8562 69.9815 29.5456 O.2 0 **** -0.419
5038 H 97.0319 69.1112 42.7181 H 0 **** 0.053
5039 H 95.7875 67.9515 43.1742 H 0 **** 0.053
5040 H 97.814 69.3298 44.9541 H 0 **** 0.053
5041 H 96.2535 68.6402 45.3697 H 0 **** 0.053
5042 H 98.9481 67.2354 45.0377 H 0 **** 0.053
5043 H 97.8175 65.0494 45.2513 H 0 **** 0.053
5044 H 96.4104 65.547 42.8423 H 0 **** 0.053
5045 H 98.1401 65.2401 42.9575 H 0 **** 0.053
5046 H 95.1826 66.397 44.6638 H 0 **** 0.053
5047 H 95.2588 67.3195 46.8173 H 0 **** 0.053
5048 H 97.3055 65.2011 47.5432 H 0 **** 0.053
5049 H 96.7385 66.4703 48.6336 H 0 **** 0.053
5050 H 98.9556 66.9502 47.3217 H 0 **** 0.053
5051 H 97.7445 68.2271 47.333 H 0 **** 0.053
5052 H 92.809 64.718 47.4954 H 0 **** 0.053
5053 H 94.0485 63.1352 46.4338 H 0 **** 0.053
5054 H 95.3574 64.0239 44.1048 H 0 **** 0.053
5055 H 96.0516 63.6805 45.6951 H 0 **** 0.053
5056 H 93.5648 66.9721 45.5622 H 0 **** 0.053
5057 H 90.1908 63.0076 41.9274 H 0 **** 0.053
5058 H 91.8693 63.5775 41.7279 H 0 **** 0.053
5059 H 91.9236 61.2484 42.6755 H 0 **** 0.053
5060 H 90.7216 61.7032 43.8942 H 0 **** 0.053
5061 H 93.2841 61.6107 44.6486 H 0 **** 0.1268
5062 H 92.6444 69.0031 45.832 H 0 **** 0.053
5063 H 90.4623 67.7019 49.7698 H 0 **** 0.053
5064 H 92.0757 68.2914 50.3118 H 0 **** 0.053
5065 H 92.433 66.2088 48.9598 H 0 **** 0.1268
5066 H 90.2383 70.1817 50.6139 H 0 **** 0.053
5067 H 91.7106 71.0513 50.1172 H 0 **** 0.053
5068 H 89.7742 72.5292 49.6464 H 0 **** 0.053
5069 H 88.9485 71.2236 48.7692 H 0 **** 0.053
5070 H 93.0094 71.064 45.6382 H 0 **** 0.053
5071 H 91.4397 71.034 44.8355 H 0 **** 0.053
5072 H 92.8054 73.3714 46.2368 H 0 **** 0.053
5073 H 89.9642 73.1709 45.1107 H 0 **** 0.053
5074 H 90.7275 74.7092 45.5269 H 0 **** 0.053
5075 H 89.2759 73.6751 47.3846 H 0 **** 0.053
5076 H 90.9338 74.128 47.8581 H 0 **** 0.053
5077 H 89.4173 70.1199 45.9646 H 0 **** 0.053
5078 H 84.8995 71.0654 43.1073 H 0 **** 0.053
5079 H 82.9544 71.309 41.8092 H 0 **** 0.053
5080 H 87.2806 64.3677 40.5991 H 0 **** 0.053
5081 H 79.1682 72.1908 37.9318 H 0 **** 0.053
5082 H 80.8141 72.8296 39.4345 H 0 **** 0.053
5083 H 79.1643 71.4116 41.5657 H 0 **** 0.053
5084 H 78.6562 73.819 41.3409 H 0 **** 0.053
5085 H 80.2499 74.5284 40.9875 H 0 **** 0.053
5086 H 79.4259 74.8218 38.5494 H 0 **** 0.053
5087 H 78.5867 75.8648 39.7059 H 0 **** 0.053
5088 H 76.6353 74.5363 39.7245 H 0 **** 0.053
5089 H 77.081 72.3483 40.1072 H 0 **** 0.053
5090 H 76.9952 71.927 37.0975 H 0 **** 0.053
5091 H 76.2414 70.931 38.3665 H 0 **** 0.053
5092 H 74.7174 72.8817 38.8596 H 0 **** 0.053
5093 H 74.5063 72.336 37.1976 H 0 **** 0.053
5094 H 74.9078 74.9825 37.8001 H 0 **** 0.053
5095 H 75.4584 74.3055 36.2746 H 0 **** 0.053
5096 H 77.6051 74.3071 37.0028 H 0 **** 0.353
5097 H 84.6292 61.3184 39.1452 H 0 **** 0.053
5098 H 87.0657 61.6972 38.8242 H 0 **** 0.053
5099 H 86.531 64.0599 36.9991 H 0 **** 0.053
5100 H 87.9821 63.0908 37.1711 H 0 **** 0.053
5101 H 87.1906 62.3679 35.0398 H 0 **** 0.053
5102 H 85.4916 62.5839 35.4812 H 0 **** 0.053
5103 H 87.2936 60.3802 36.6282 H 0 **** 0.053
5104 H 86.1552 60.1109 35.2918 H 0 **** 0.053
5105 H 85.3972 59.4966 37.781 H 0 **** 0.053
5106 H 84.2394 60.3239 36.7159 H 0 **** 0.053
5107 H 82.1171 63.053 36.3424 H 0 **** 0.053
5108 H 80.0782 63.3583 35.0461 H 0 **** 0.053
5109 H 78.014 70.167 37.3195 H 0 **** 0.053
5110 H 75.7317 70.1465 36.3314 H 0 **** 0.053
5111 H 74.3145 68.5759 35.4285 H 0 **** 0.053
5112 H 75.1576 69.8071 32.7348 H 0 **** 0.053
5113 H 73.8391 71.183 35.1129 H 0 **** 0.053
5114 H 73.8022 71.87 33.4721 H 0 **** 0.053
5115 H 75.8012 72.5194 35.184 H 0 **** 0.053
5116 H 76.0822 72.3954 33.4415 H 0 **** 0.053
5117 H 77.7521 71.152 35.0811 H 0 **** 0.053
5118 H 77.195 70.2494 33.6684 H 0 **** 0.053
5119 H 93.5618 72.682 43.9295 H 0 **** 0.053
5120 H 92.2001 73.2544 41.9607 H 0 **** 0.053
5121 H 90.8571 73.8062 42.9898 H 0 **** 0.053
5122 H 91.2919 72.0827 42.9389 H 0 **** 0.053
5123 H 93.9531 74.9608 44.8424 H 0 **** 0.053
5124 H 92.3797 75.5015 44.2106 H 0 **** 0.053
5125 H 93.6729 75.0173 43.0871 H 0 **** 0.053
5126 H 81.0893 71.5209 42.7448 H 0 **** 0.41
5127 H 77.162 62.8478 32.8069 H 0 **** 0.053
5128 H 75.3206 61.694 31.3691 H 0 **** 0.053
5129 H 73.0563 61.789 30.2093 H 0 **** 0.053
5130 H 70.806 61.8492 28.9825 H 0 **** 0.053
5131 H 68.5683 63.1655 28.4502 H 0 **** 0.053
5132 H 66.8561 67.7102 29.3904 H 0 **** 0.053
5133 H 67.1488 65.3051 28.6955 H 0 **** 0.053
5134 H 71.9491 70.9605 33.1251 H 0 **** 0.053
5135 H 70.0011 71.2423 33.5058 H 0 **** 0.053
5136 H 70.049 72.0698 31.9376 H 0 **** 0.053
5137 H 67.8884 72.5589 33.0646 H 0 **** 0.053
5138 H 67.6014 70.8349 33.3175 H 0 **** 0.053
5139 H 67.8374 72.2171 30.5635 H 0 **** 0.053
5140 H 66.3131 71.6117 31.2514 H 0 **** 0.053
5141 C 59.9631 25.3194 107.663 C.3 0 **** 0.054
5142 C 58.961 25.2694 108.852 C.3 0 **** -0.106
5143 C 59.0643 23.9192 109.614 C.3 0 **** -0.053
5144 C 59.2529 22.7857 108.578 C.3 0 **** -0.053
5145 C 60.5244 23.0542 107.718 C.3 0 **** 0.054
5146 O 61.0118 24.3824 107.845 O.3 0 **** -0.32
5147 C 57.9845 22.6299 107.688 C.3 0 **** -0.053
5148 C 56.6478 22.8663 108.489 C.3 0 **** 0.107
5149 C 56.8741 22.6447 109.98 C.3 0 **** -0.106
5150 C 57.8712 23.6575 110.567 C.3 0 **** -0.106
5151 O 55.5672 22.0131 108.096 O.3 0 **** -0.32
5152 C 55.5129 21.8933 106.683 C.3 0 **** 0.107
5153 C 56.6547 20.9313 106.259 C.3 0 **** -0.053
5154 C 57.9785 21.2492 107.001 C.3 0 **** -0.106
5155 C 56.8854 20.8244 104.774 C.2 0 **** 0
5156 C 56.6443 22.096 103.972 C.3 0 **** 0
5157 C 55.5114 22.9915 104.472 C.3 0 **** 0
5158 C 55.4557 23.2444 105.974 C.3 0 **** -0.053
5159 C 55.3085 24.2568 103.662 C.3 0 **** 0
5160 C 55.1315 23.9299 102.184 C.3 0 **** 0
5161 C 56.3705 23.0844 101.705 C.3 0 **** 0.16
5162 C 56.54 21.8019 102.489 C.3 0 **** 0
5163 C 57.6499 20.8722 101.927 C.3 0 **** -0.106
5164 C 57.4098 19.5423 102.625 C.3 0 **** -0.106
5165 C 57.2427 19.6856 104.134 C.2 0 **** -0.1268
5166 O 56.6177 22.9111 100.292 O.3 0 **** -0.32
5167 C 55.621 23.5124 99.493 C.3 0 **** 0.16
5168 C 55.2254 24.9817 99.8603 C.3 0 **** 0
5169 C 54.9842 25.241 101.368 C.3 0 **** 0
5170 C 54.2289 24.0592 106.291 C.2 0 **** 0
5171 C 54.3166 25.4482 105.724 C.3 0 **** -0.053
5172 C 54.2128 25.1978 104.192 C.3 0 **** 0
5173 C 53.2246 26.4264 106.097 C.2 0 **** 0
5174 C 52.0715 25.9273 106.614 C.2 0 **** 0
5175 C 51.8801 24.4676 106.999 C.3 0 **** -0.106
5176 C 53.1237 23.6034 106.87 C.2 0 **** -0.1268
5177 C 50.9497 26.8472 107.037 C.3 0 **** -0.106
5178 C 50.8969 28.0419 106.096 C.3 0 **** -0.106
5179 C 52.2977 28.6029 105.924 C.2 0 **** 0
5180 C 53.3949 27.7789 105.946 C.2 0 **** 0
5181 C 54.7727 28.3688 105.712 C.3 0 **** -0.106
5182 C 54.8315 29.8796 105.885 C.3 0 **** -0.053
5183 C 53.7059 30.5322 105.065 C.3 0 **** -0.106
5184 C 52.3462 30.0835 105.612 C.3 0 **** -0.106
5185 C 53.7652 26.0302 101.859 C.3 0 **** 0.147
5186 C 54.0026 26.4523 103.302 C.3 0 **** -0.053
5187 C 54.1966 25.6277 98.9253 C.3 0 **** 0
5188 C 53.7628 27.057 99.2697 C.3 0 **** 0.147
5189 S 53.2885 27.5106 100.92 S.3 0 **** -0.294
5190 C 52.8422 27.6935 98.2686 C.3 0 **** -0.053
5191 C 53.4976 27.6205 96.8833 C.3 0 **** 0
5192 C 53.8483 26.1379 96.4749 C.3 0 **** 0
5193 C 54.8219 25.5299 97.5055 C.3 0 **** 0
5194 C 54.4874 26.148 95.0932 C.3 0 **** 0
5195 C 53.5176 26.747 94.0937 C.3 0 **** 0
5196 C 53.0725 28.226 94.4597 C.3 0 **** 0
5197 C 52.4454 28.23 95.9027 C.3 0 **** -0.053
5198 C 51.993 28.6504 93.4238 C.3 0 **** 0
5199 C 52.695 28.7915 92.0906 C.3 0 **** 0.16
5200 C 53.4063 27.5077 91.6526 C.3 0 **** 0
5201 C 53.9144 26.5184 92.6614 C.3 0 **** 0
5202 C 55.3411 24.1148 97.135 C.3 0 **** 0
5203 C 56.3154 23.5362 98.1553 C.3 0 **** -0.053
5204 C 55.2551 24.8811 94.6538 C.3 0 **** 0
5205 C 55.4989 23.7345 95.6382 C.3 0 **** 0
5206 C 55.0594 25.5821 92.2748 C.3 0 **** 0
5207 C 55.0861 24.3672 93.2211 C.3 0 **** 0
5208 C 53.5764 27.1794 90.1688 C.3 0 **** 0
5209 C 54.7815 26.2193 89.9119 C.3 0 **** 0
5210 C 54.8396 25.0025 90.8534 C.3 0 **** 0
5211 O 51.7798 29.3344 91.1639 O.3 0 **** -0.32
5212 C 51.9263 30.7377 91.3783 C.3 0 **** 0.107
5213 C 51.7175 31.0814 92.8883 C.3 0 **** -0.053
5214 C 51.0924 29.8944 93.6176 C.3 0 **** 0.107
5215 C 50.8479 32.338 93.0424 C.3 0 **** -0.106
5216 C 51.2322 33.3781 91.974 C.3 0 **** -0.106
5217 C 50.7994 32.8979 90.576 C.3 0 **** 0.134
5218 C 50.9149 31.356 90.4361 C.3 0 **** -0.053
5219 C 51.2153 30.9201 88.9805 C.3 0 **** -0.106
5220 C 50.5051 31.851 88.006 C.3 0 **** -0.106
5221 C 50.9817 33.3225 88.2032 C.3 0 **** 0.081
5222 N 51.5176 33.6035 89.5337 N.3 0 **** -0.727
5223 C 56.6672 22.8103 95.2024 C.3 0 **** 0.16
5224 C 56.3802 22.2797 93.8064 C.3 0 **** 0.16
5225 C 56.3383 23.4462 92.8612 C.3 0 **** 0
5226 O 57.2988 21.3149 93.3392 O.3 0 **** -0.32
5227 C 57.4844 20.309 94.3291 C.3 0 **** 0.107
5228 C 57.9891 20.9463 95.5872 C.3 0 **** 0.107
5229 O 56.9383 21.7469 96.102 O.3 0 **** -0.32
5230 C 59.2792 21.7738 95.3514 C.3 0 **** -0.106
5231 C 60.1088 21.2242 94.1554 C.3 0 **** -0.106
5232 C 59.9228 19.6983 94.038 C.3 0 **** -0.106
5233 C 58.4472 19.3109 93.7373 C.3 0 **** -0.106
5234 C 56.0564 24.0605 90.4397 C.3 0 **** 0
5235 C 56.1113 22.854 91.4311 C.3 0 **** -0.053
5236 C 54.6722 25.6729 88.4788 C.3 0 **** 0
5237 C 55.8047 24.6875 88.1347 C.3 0 **** 0.16
5238 C 55.9086 23.5188 89.03 C.3 0 **** -0.053
5239 C 54.7054 26.9383 87.5341 C.3 0 **** 0
5240 C 53.4983 27.9094 87.8649 C.3 0 **** 0
5241 C 53.7429 28.4453 89.2841 C.3 0 **** -0.053
5242 O 55.8274 24.2268 86.8255 O.3 0 **** -0.32
5243 C 55.6601 25.3258 85.9385 C.3 0 **** 0.16
5244 C 54.4295 26.2969 86.1778 C.3 0 **** 0
5245 C 53.3115 29.0937 86.8754 C.3 0 **** -0.053
5246 C 53.3358 28.5629 85.4434 C.3 0 **** -0.053
5247 C 54.4275 27.4592 85.1766 C.3 0 **** 0
5248 C 53.7275 29.6446 84.4957 C.3 0 **** -0.053
5249 C 53.0931 30.9536 84.8848 C.3 0 **** -0.106
5250 C 53.7503 31.4423 86.2076 C.3 0 **** -0.106
5251 C 54.3007 30.2674 87.0421 C.3 0 **** -0.106
5252 C 54.2182 26.8624 83.805 C.3 0 **** 0
5253 C 55.2349 25.7324 83.4649 C.3 0 **** 0
5254 C 55.5727 24.7258 84.5625 C.3 0 **** 0
5255 C 53.2375 29.1004 83.1563 C.3 0 **** 0
5256 C 54.1365 27.925 82.7312 C.3 0 **** 0
5257 C 56.2444 30.4409 105.58 C.3 0 **** -0.053
5258 C 56.5764 30.4555 104.081 C.3 0 **** -0.159
5259 C 56.4278 31.8422 106.175 C.3 0 **** -0.159
5260 O 50.7997 30.2301 94.9669 O.3 0 **** -0.57
5261 C 56.1776 23.3285 84.2479 C.3 0 **** -0.053
5262 C 56.6763 23.123 82.8139 C.3 0 **** -0.053
5263 C 55.6869 23.7455 81.8121 C.3 0 **** 0
5264 C 55.4406 25.2704 82.0335 C.3 0 **** 0
5265 C 54.6456 26.0847 81.0276 C.3 0 **** 0
5266 C 54.5629 25.5439 79.6301 C.3 0 **** 0
5267 C 55.3577 24.2509 79.3187 C.3 0 **** 0
5268 C 56.2054 23.52 80.3876 C.3 0 **** -0.053
5269 C 55.4766 23.7948 77.871 C.3 0 **** -0.053
5270 C 54.9928 24.7548 76.7621 C.3 0 **** -0.053
5271 C 54.0072 25.8955 77.1639 C.3 0 **** 0
5272 C 54.3644 26.589 78.5049 C.3 0 **** 0
5273 C 53.2818 27.6589 78.9232 C.3 0 **** 0
5274 C 53.6825 28.3377 80.2873 C.3 0 **** 0
5275 C 53.766 27.281 81.4077 C.3 0 **** 0
5276 C 53.1611 28.7267 77.7895 C.3 0 **** 0
5277 C 52.7713 27.9946 76.4515 C.3 0 **** -0.053
5278 C 53.817 26.9376 76.047 C.3 0 **** -0.053
5279 C 53.1465 30.1503 82.0298 C.3 0 **** -0.053
5280 C 52.5906 29.3869 80.7433 C.3 0 **** 0
5281 C 52.0463 29.7994 78.1824 C.3 0 **** 0.02
5282 C 52.3239 30.4314 79.5918 C.3 0 **** 0
5283 C 51.4021 31.5712 80.0862 C.3 0 **** -0.106
5284 C 50.3812 31.8882 79.0299 C.3 0 **** -0.106
5285 C 51.0642 32.0802 77.6805 C.3 0 **** -0.086
5286 C 51.8602 30.9328 77.1772 C.2 0 **** 0.379
5287 O 52.2408 30.9141 76.0192 O.2 0 **** -0.419
5288 H 60.4334 26.3092 107.587 H 0 **** 0.053
5289 H 59.4422 25.1489 106.708 H 0 **** 0.053
5290 H 59.1336 26.0969 109.568 H 0 **** 0.053
5291 H 57.9298 25.4215 108.482 H 0 **** 0.053
5292 H 59.989 23.9677 110.212 H 0 **** 0.053
5293 H 59.3693 21.8351 109.13 H 0 **** 0.053
5294 H 60.345 22.8121 106.655 H 0 **** 0.053
5295 H 61.3445 22.4066 108.047 H 0 **** 0.053
5296 H 58.0739 23.39 106.892 H 0 **** 0.053
5297 H 56.3307 23.9184 108.368 H 0 **** 0.053
5298 H 57.2424 21.6098 110.112 H 0 **** 0.053
5299 H 55.9026 22.6955 110.496 H 0 **** 0.053
5300 H 58.2332 23.2891 111.537 H 0 **** 0.053
5301 H 57.3456 24.6013 110.77 H 0 **** 0.053
5302 H 54.5866 21.3599 106.46 H 0 **** 0.053
5303 H 56.3488 19.9288 106.579 H 0 **** 0.053
5304 H 58.8779 21.145 106.355 H 0 **** 0.053
5305 H 58.0919 20.4968 107.801 H 0 **** 0.053
5306 H 56.3184 23.8773 106.232 H 0 **** 0.053
5307 H 57.5412 20.7742 100.829 H 0 **** 0.053
5308 H 58.6607 21.2887 102.119 H 0 **** 0.053
5309 H 58.2047 18.8305 102.39 H 0 **** 0.053
5310 H 56.4653 19.1235 102.231 H 0 **** 0.053
5311 H 57.4486 18.7777 104.692 H 0 **** 0.1268
5312 H 55.3233 25.8719 105.957 H 0 **** 0.053
5313 H 51.0439 24.0113 106.39 H 0 **** 0.053
5314 H 51.5401 24.4191 108.073 H 0 **** 0.053
5315 H 53.0458 22.5888 107.25 H 0 **** 0.1268
5316 H 49.9748 26.3143 107.073 H 0 **** 0.053
5317 H 51.1689 27.1852 108.066 H 0 **** 0.053
5318 H 50.1946 28.8139 106.468 H 0 **** 0.053
5319 H 50.5201 27.723 105.105 H 0 **** 0.053
5320 H 55.4738 27.9149 106.428 H 0 **** 0.053
5321 H 55.148 28.1012 104.705 H 0 **** 0.053
5322 H 54.6282 30.0901 106.956 H 0 **** 0.053
5323 H 53.7979 30.2261 104.01 H 0 **** 0.053
5324 H 53.77 31.6295 105.084 H 0 **** 0.053
5325 H 51.5393 30.3589 104.893 H 0 **** 0.053
5326 H 52.131 30.642 106.551 H 0 **** 0.053
5327 H 53.1271 27.1034 103.647 H 0 **** 0.053
5328 H 52.5086 28.7453 98.5105 H 0 **** 0.053
5329 H 52.3098 29.3078 96.2364 H 0 **** 0.053
5330 H 56.6575 22.4831 97.9338 H 0 **** 0.053
5331 H 52.9409 31.0335 91.0619 H 0 **** 0.053
5332 H 52.698 31.3204 93.3496 H 0 **** 0.053
5333 H 50.1736 29.6345 93.1109 H 0 **** 0.053
5334 H 49.7764 32.0657 92.9223 H 0 **** 0.053
5335 H 50.9498 32.7476 94.0735 H 0 **** 0.053
5336 H 52.3272 33.5006 92.013 H 0 **** 0.053
5337 H 50.7938 34.3653 92.1889 H 0 **** 0.053
5338 H 49.7322 33.1499 90.4659 H 0 **** 0.053
5339 H 49.9426 30.91 90.7306 H 0 **** 0.053
5340 H 52.2971 31.0241 88.81 H 0 **** 0.053
5341 H 50.9503 29.8594 88.8259 H 0 **** 0.053
5342 H 49.4197 31.766 88.1966 H 0 **** 0.053
5343 H 50.6539 31.5287 86.9612 H 0 **** 0.053
5344 H 50.1383 34.0073 88.0193 H 0 **** 0.053
5345 H 51.7448 33.5806 87.4482 H 0 **** 0.053
5346 H 52.4848 33.352 89.5792 H 0 **** 0.353
5347 H 56.5104 19.865 94.533 H 0 **** 0.053
5348 H 58.2088 20.1762 96.3221 H 0 **** 0.053
5349 H 59.0563 22.8437 95.1535 H 0 **** 0.053
5350 H 59.9132 21.7906 96.263 H 0 **** 0.053
5351 H 61.1802 21.4889 94.2643 H 0 **** 0.053
5352 H 59.7728 21.7064 93.2154 H 0 **** 0.053
5353 H 60.214 19.2523 95.0048 H 0 **** 0.053
5354 H 60.5962 19.2752 93.2705 H 0 **** 0.053
5355 H 58.2479 18.2738 94.0648 H 0 **** 0.053
5356 H 58.286 19.3289 92.6349 H 0 **** 0.053
5357 H 56.9856 22.1805 91.1285 H 0 **** 0.053
5358 H 56.7223 22.805 88.7893 H 0 **** 0.053
5359 H 52.938 29.2053 89.4934 H 0 **** 0.053
5360 H 52.3214 29.4672 87.0982 H 0 **** 0.053
5361 H 52.3347 28.1478 85.214 H 0 **** 0.053
5362 H 54.8283 29.7873 84.4541 H 0 **** 0.053
5363 H 52.008 30.7899 85.0263 H 0 **** 0.053
5364 H 53.1976 31.7531 84.1193 H 0 **** 0.053
5365 H 53.005 31.9973 86.8121 H 0 **** 0.053
5366 H 54.5567 32.1653 85.9789 H 0 **** 0.053
5367 H 54.4261 30.5763 88.0956 H 0 **** 0.053
5368 H 55.2924 29.9615 86.684 H 0 **** 0.053
5369 H 56.9751 29.7773 106.08 H 0 **** 0.053
5370 H 57.6252 30.7491 103.914 H 0 **** 0.053
5371 H 55.9377 31.1771 103.545 H 0 **** 0.053
5372 H 56.4309 29.47 103.61 H 0 **** 0.053
5373 H 56.2496 31.8408 107.262 H 0 **** 0.053
5374 H 55.7254 32.5583 105.72 H 0 **** 0.053
5375 H 57.4491 32.2158 106.003 H 0 **** 0.053
5376 H 50.4112 29.447 95.351 H 0 **** 0.41
5377 H 56.7542 22.8328 85.0788 H 0 **** 0.053
5378 H 56.8833 22.0375 82.6 H 0 **** 0.053
5379 H 56.3999 22.4421 80.133 H 0 **** 0.053
5380 H 55.9815 22.8241 77.6329 H 0 **** 0.053
5381 H 54.8884 24.3193 75.7371 H 0 **** 0.053
5382 H 52.61 28.7077 75.5991 H 0 **** 0.053
5383 H 53.5959 26.4492 75.0698 H 0 **** 0.053
5384 H 52.4372 31.0085 82.3168 H 0 **** 0.053
5385 H 50.918 31.3134 81.0446 H 0 **** 0.053
5386 H 52.087 32.398 80.2679 H 0 **** 0.053
5387 H 49.8304 32.787 79.3018 H 0 **** 0.053
5388 H 49.6444 31.0611 78.9769 H 0 **** 0.053
5389 H 51.798 32.8891 77.7232 H 0 **** 0.053
5390 H 50.3936 32.2472 76.8406 H 0 **** 0.053
5391 C 50.0361 11.5981 14.4817 C.3 0 **** 0.054
5392 C 50.3313 11.8354 12.9725 C.3 0 **** -0.106
5393 C 51.7304 12.4809 12.7707 C.3 0 **** -0.053
5394 C 51.9478 13.5345 13.8834 C.3 0 **** -0.053
5395 C 51.8251 12.8646 15.285 C.3 0 **** 0.054
5396 O 51.2379 11.5722 15.2339 O.3 0 **** -0.32
5397 C 50.9501 14.7202 13.7285 C.3 0 **** -0.053
5398 C 50.6731 15.0872 12.2206 C.3 0 **** 0.107
5399 C 51.8134 14.5993 11.3353 C.3 0 **** -0.106
5400 C 51.9391 13.0668 11.3519 C.3 0 **** -0.106
5401 O 50.5196 16.4895 11.9748 O.3 0 **** -0.32
5402 C 49.73 17.0916 12.9886 C.3 0 **** 0.107
5403 C 50.6276 17.2342 14.2467 C.3 0 **** -0.053
5404 C 51.4538 15.9493 14.5114 C.3 0 **** -0.106
5405 C 49.9133 17.6789 15.4973 C.2 0 **** 0
5406 C 48.4814 17.1866 15.6534 C.3 0 **** 0
5407 C 47.6774 17.0607 14.36 C.3 0 **** 0
5408 C 48.3826 16.3993 13.1822 C.3 0 **** -0.053
5409 C 46.2619 16.5521 14.5485 C.3 0 **** 0
5410 C 45.5148 17.4001 15.5721 C.3 0 **** 0
5411 C 46.346 17.42 16.9093 C.3 0 **** 0.16
5412 C 47.7433 17.9684 16.7211 C.3 0 **** 0
5413 C 48.5214 18.1543 18.0525 C.3 0 **** -0.106
5414 C 49.7148 19.0155 17.6672 C.3 0 **** -0.106
5415 C 50.4472 18.4983 16.4341 C.2 0 **** -0.1268
5416 O 45.7263 17.8751 18.1325 O.3 0 **** -0.32
5417 C 44.4028 18.3227 17.9315 C.3 0 **** 0.16
5418 C 43.4694 17.3824 17.0987 C.3 0 **** 0
5419 C 44.0903 16.8267 15.7922 C.3 0 **** 0
5420 C 47.4813 16.45 11.9758 C.2 0 **** 0
5421 C 46.259 15.594 12.1532 C.3 0 **** -0.053
5422 C 45.4627 16.3608 13.2477 C.3 0 **** 0
5423 C 45.3422 15.4274 10.9616 C.2 0 **** 0
5424 C 45.4659 16.3081 9.9343 C.2 0 **** 0
5425 C 46.5801 17.34 9.83548 C.3 0 **** -0.106
5426 C 47.6346 17.2495 10.9262 C.2 0 **** -0.1268
5427 C 44.6049 16.1838 8.69844 C.3 0 **** -0.106
5428 C 43.2247 15.6807 9.09562 C.3 0 **** -0.106
5429 C 43.3773 14.487 10.0224 C.2 0 **** 0
5430 C 44.4301 14.405 10.8989 C.2 0 **** 0
5431 C 44.5161 13.2259 11.8497 C.3 0 **** -0.106
5432 C 43.6429 12.0467 11.4457 C.3 0 **** -0.053
5433 C 42.2139 12.5419 11.1647 C.3 0 **** -0.106
5434 C 42.2292 13.5017 9.96985 C.3 0 **** -0.106
5435 C 43.3131 16.8334 14.4697 C.3 0 **** 0.147
5436 C 44.0025 15.8927 13.4923 C.3 0 **** -0.053
5437 C 42.0211 17.8659 16.9653 C.3 0 **** 0
5438 C 41.0828 16.9894 16.1263 C.3 0 **** 0.147
5439 S 41.5571 16.3711 14.5293 S.3 0 **** -0.294
5440 C 39.6436 17.4253 16.1202 C.3 0 **** -0.053
5441 C 39.1597 17.554 17.5707 C.3 0 **** 0
5442 C 40.0582 18.5449 18.4057 C.3 0 **** 0
5443 C 41.5152 18.0389 18.4248 C.3 0 **** 0
5444 C 39.5116 18.6246 19.8237 C.3 0 **** 0
5445 C 38.0809 19.1229 19.7862 C.3 0 **** 0
5446 C 37.118 18.2082 18.9187 C.3 0 **** 0
5447 C 37.6972 18.091 17.4615 C.3 0 **** -0.053
5448 C 35.7324 18.9111 18.8716 C.3 0 **** 0
5449 C 35.1562 18.8415 20.2688 C.3 0 **** 0.16
5450 C 36.0663 19.4768 21.3243 C.3 0 **** 0
5451 C 37.554 19.5398 21.1314 C.3 0 **** 0
5452 C 42.466 18.8666 19.3301 C.3 0 **** 0
5453 C 43.8979 18.3412 19.3515 C.3 0 **** -0.053
5454 C 40.4343 19.2175 20.9115 C.3 0 **** 0
5455 C 41.894 19.5552 20.5987 C.3 0 **** 0
5456 C 38.4579 19.6465 22.3597 C.3 0 **** 0
5457 C 39.8431 20.1785 21.9468 C.3 0 **** 0
5458 C 35.4725 20.1201 22.578 C.3 0 **** 0
5459 C 36.4962 20.1658 23.7566 C.3 0 **** 0
5460 C 37.8945 20.6809 23.3682 C.3 0 **** 0
5461 O 33.8304 19.3228 20.2261 O.3 0 **** -0.32
5462 C 33.0926 18.1533 19.8738 C.3 0 **** 0.107
5463 C 33.6741 17.5169 18.5702 C.3 0 **** -0.053
5464 C 34.6185 18.4986 17.8794 C.3 0 **** 0.107
5465 C 32.5417 17.0898 17.6246 C.3 0 **** -0.106
5466 C 31.3838 16.476 18.433 C.3 0 **** -0.106
5467 C 30.6726 17.5613 19.2626 C.3 0 **** 0.134
5468 C 31.6647 18.6452 19.7633 C.3 0 **** -0.053
5469 C 31.2175 19.2736 21.1065 C.3 0 **** -0.106
5470 C 29.6976 19.3697 21.1512 C.3 0 **** -0.106
5471 C 29.0512 17.9573 21.012 C.3 0 **** 0.081
5472 N 29.9012 16.9755 20.3405 N.3 0 **** -0.727
5473 C 42.7713 19.6591 21.8751 C.3 0 **** 0.16
5474 C 42.1599 20.6916 22.8093 C.3 0 **** 0.16
5475 C 40.8012 20.203 23.2222 C.3 0 **** 0
5476 O 42.9331 20.9857 23.953 O.3 0 **** -0.32
5477 C 44.2765 21.2568 23.5682 C.3 0 **** 0.107
5478 C 44.8322 20.0631 22.8542 C.3 0 **** 0.107
5479 O 44.1374 19.9496 21.6236 O.3 0 **** -0.32
5480 C 44.7201 18.7672 23.6985 C.3 0 **** -0.106
5481 C 44.7416 19.0672 25.2249 C.3 0 **** -0.106
5482 C 45.6014 20.3153 25.5077 C.3 0 **** -0.106
5483 C 45.0171 21.5913 24.8383 C.3 0 **** -0.106
5484 C 38.8188 20.76 24.6639 C.3 0 **** 0
5485 C 40.2371 21.2537 24.2339 C.3 0 **** -0.053
5486 C 35.9519 21.1152 24.8366 C.3 0 **** 0
5487 C 36.9107 21.2521 26.0369 C.3 0 **** 0.16
5488 C 38.2702 21.7244 25.6998 C.3 0 **** -0.053
5489 C 34.5621 20.5092 25.2791 C.3 0 **** 0
5490 C 33.5742 20.4303 24.0445 C.3 0 **** 0
5491 C 34.1773 19.4128 23.0637 C.3 0 **** -0.053
5492 O 36.4448 22.0151 27.1012 O.3 0 **** -0.32
5493 C 35.1069 21.6324 27.3997 C.3 0 **** 0.16
5494 C 34.0528 21.6015 26.2142 C.3 0 **** 0
5495 C 32.1119 20.0329 24.3905 C.3 0 **** -0.053
5496 C 31.6188 20.8888 25.5553 C.3 0 **** -0.053
5497 C 32.682 21.1099 26.6958 C.3 0 **** 0
5498 C 30.509 20.1992 26.2726 C.3 0 **** -0.053
5499 C 29.588 19.5115 25.2998 C.3 0 **** -0.106
5500 C 30.3494 18.3098 24.67 C.3 0 **** -0.106
5501 C 31.8756 18.5336 24.6728 C.3 0 **** -0.106
5502 C 32.1635 22.1335 27.6779 C.3 0 **** 0
5503 C 33.1654 22.451 28.8274 C.3 0 **** 0
5504 C 34.6444 22.5793 28.4726 C.3 0 **** 0
5505 C 29.8494 21.3451 27.0355 C.3 0 **** 0
5506 C 30.779 21.7881 28.1803 C.3 0 **** 0
5507 C 43.7211 10.8911 12.4768 C.3 0 **** -0.053
5508 C 42.9635 11.1919 13.7784 C.3 0 **** -0.159
5509 C 43.2285 9.57092 11.8727 C.3 0 **** -0.159
5510 O 35.0701 17.976 16.6372 O.3 0 **** -0.57
5511 C 35.6543 23.3343 29.3825 C.3 0 **** -0.053
5512 C 35.1572 23.6658 30.793 C.3 0 **** -0.053
5513 C 33.7003 24.1601 30.7409 C.3 0 **** 0
5514 C 32.7094 23.1397 30.1001 C.3 0 **** 0
5515 C 31.2111 23.3842 30.1338 C.3 0 **** 0
5516 C 30.6971 24.2974 31.2077 C.3 0 **** 0
5517 C 31.7264 24.8535 32.2234 C.3 0 **** 0
5518 C 33.2307 24.4953 32.1603 C.3 0 **** -0.053
5519 C 31.2163 25.5994 33.4488 C.3 0 **** -0.053
5520 C 29.6982 25.5852 33.7325 C.3 0 **** -0.053
5521 C 28.739 25.2272 32.5554 C.3 0 **** 0
5522 C 29.2404 24.0543 31.6726 C.3 0 **** 0
5523 C 28.2948 23.8007 30.4342 C.3 0 **** 0
5524 C 28.8395 22.6038 29.5666 C.3 0 **** 0
5525 C 30.2491 22.9281 29.0309 C.3 0 **** 0
5526 C 26.8535 23.4953 30.9527 C.3 0 **** 0
5527 C 26.3644 24.7145 31.8203 C.3 0 **** -0.053
5528 C 27.2935 24.9767 33.0214 C.3 0 **** -0.053
5529 C 28.4373 21.032 27.5721 C.3 0 **** -0.053
5530 C 27.9261 22.3578 28.2989 C.3 0 **** 0
5531 C 25.8764 23.2684 29.7114 C.3 0 **** 0.02
5532 C 26.4239 22.1641 28.7395 C.3 0 **** 0
5533 C 25.5488 21.7361 27.5372 C.3 0 **** -0.106
5534 C 24.2499 22.4906 27.5678 C.3 0 **** -0.106
5535 C 23.6212 22.3989 28.953 C.3 0 **** -0.086
5536 C 24.4391 22.9115 30.0805 C.2 0 **** 0.379
5537 O 23.9285 23.0885 31.1735 O.2 0 **** -0.419
5538 H 49.5445 10.6283 14.6382 H 0 **** 0.053
5539 H 49.3445 12.3629 14.8679 H 0 **** 0.053
5540 H 50.2874 10.8919 12.3937 H 0 **** 0.053
5541 H 49.5468 12.4781 12.5316 H 0 **** 0.053
5542 H 52.4702 11.6807 12.9345 H 0 **** 0.053
5543 H 52.9619 13.9571 13.7585 H 0 **** 0.053
5544 H 51.2701 13.51 15.9878 H 0 **** 0.053
5545 H 52.8199 12.719 15.7204 H 0 **** 0.053
5546 H 50.0097 14.3924 14.2044 H 0 **** 0.053
5547 H 49.7595 14.5659 11.8803 H 0 **** 0.053
5548 H 52.745 15.0734 11.6982 H 0 **** 0.053
5549 H 51.653 14.9757 10.3127 H 0 **** 0.053
5550 H 52.9262 12.7799 10.9641 H 0 **** 0.053
5551 H 51.1981 12.6387 10.662 H 0 **** 0.053
5552 H 49.5354 18.1126 12.6543 H 0 **** 0.053
5553 H 51.3476 18.0299 14.0244 H 0 **** 0.053
5554 H 51.54 15.6992 15.5916 H 0 **** 0.053
5555 H 52.4831 16.1469 14.1637 H 0 **** 0.053
5556 H 48.5035 15.3335 13.429 H 0 **** 0.053
5557 H 47.8808 18.6662 18.7975 H 0 **** 0.053
5558 H 48.8127 17.1766 18.4898 H 0 **** 0.053
5559 H 50.4031 19.1246 18.5089 H 0 **** 0.053
5560 H 49.3336 20.0238 17.4208 H 0 **** 0.053
5561 H 51.4765 18.8341 16.3551 H 0 **** 0.1268
5562 H 46.5684 14.5995 12.5564 H 0 **** 0.053
5563 H 46.1439 18.3832 9.82439 H 0 **** 0.053
5564 H 47.1022 17.2142 8.84467 H 0 **** 0.053
5565 H 48.5005 17.8952 10.8131 H 0 **** 0.1268
5566 H 44.5438 17.1457 8.14468 H 0 **** 0.053
5567 H 45.0947 15.4565 8.02634 H 0 **** 0.053
5568 H 42.6198 15.4251 8.20314 H 0 **** 0.053
5569 H 42.6756 16.4769 9.63395 H 0 **** 0.053
5570 H 45.5603 12.8814 11.886 H 0 **** 0.053
5571 H 44.2601 13.5346 12.8818 H 0 **** 0.053
5572 H 44.0525 11.6529 10.4927 H 0 **** 0.053
5573 H 41.8283 13.066 12.0538 H 0 **** 0.053
5574 H 41.5254 11.7088 10.9637 H 0 **** 0.053
5575 H 41.2546 14.0392 9.90358 H 0 **** 0.053
5576 H 42.3238 12.9102 9.03147 H 0 **** 0.053
5577 H 43.3838 15.8387 12.5315 H 0 **** 0.053
5578 H 38.9406 16.7912 15.5011 H 0 **** 0.053
5579 H 37.12 17.2866 16.9037 H 0 **** 0.053
5580 H 44.6178 18.9659 19.9572 H 0 **** 0.053
5581 H 33.1625 17.4341 20.7073 H 0 **** 0.053
5582 H 34.2313 16.593 18.8296 H 0 **** 0.053
5583 H 34.0763 19.4165 17.6993 H 0 **** 0.053
5584 H 32.1709 17.9768 17.0661 H 0 **** 0.053
5585 H 32.9325 16.3814 16.8585 H 0 **** 0.053
5586 H 31.8168 15.7106 19.0981 H 0 **** 0.053
5587 H 30.66 15.9597 17.7829 H 0 **** 0.053
5588 H 29.9607 18.0657 18.5894 H 0 **** 0.053
5589 H 31.7016 19.4549 19.0057 H 0 **** 0.053
5590 H 31.5319 18.6015 21.9186 H 0 **** 0.053
5591 H 31.7106 20.2487 21.2668 H 0 **** 0.053
5592 H 29.3816 20.0248 20.3192 H 0 **** 0.053
5593 H 29.3535 19.8678 22.0738 H 0 **** 0.053
5594 H 28.1074 18.0406 20.4492 H 0 **** 0.053
5595 H 28.7707 17.5675 22.0063 H 0 **** 0.053
5596 H 30.5287 16.5554 20.9969 H 0 **** 0.353
5597 H 44.2564 22.0968 22.8743 H 0 **** 0.053
5598 H 45.8818 20.2313 22.6272 H 0 **** 0.053
5599 H 43.7911 18.2024 23.4714 H 0 **** 0.053
5600 H 45.5385 18.0588 23.4504 H 0 **** 0.053
5601 H 45.1114 18.1901 25.7938 H 0 **** 0.053
5602 H 43.7084 19.2465 25.5847 H 0 **** 0.053
5603 H 46.6066 20.1281 25.0917 H 0 **** 0.053
5604 H 45.7253 20.4729 26.5946 H 0 **** 0.053
5605 H 45.8124 22.3445 24.6875 H 0 **** 0.053
5606 H 44.2735 22.0532 25.5277 H 0 **** 0.053
5607 H 40.8953 21.311 25.168 H 0 **** 0.053
5608 H 38.964 21.8215 26.5608 H 0 **** 0.053
5609 H 33.4366 19.285 22.2244 H 0 **** 0.053
5610 H 31.5534 20.2899 23.5007 H 0 **** 0.053
5611 H 31.3086 21.8725 25.1517 H 0 **** 0.053
5612 H 30.8831 19.4431 26.9955 H 0 **** 0.053
5613 H 29.2947 20.239 24.5193 H 0 **** 0.053
5614 H 28.6457 19.1365 25.7553 H 0 **** 0.053
5615 H 30.008 18.1573 23.6264 H 0 **** 0.053
5616 H 30.094 17.38 25.2136 H 0 **** 0.053
5617 H 32.3572 17.8757 23.9269 H 0 **** 0.053
5618 H 32.3095 18.2742 25.6473 H 0 **** 0.053
5619 H 44.7888 10.7529 12.733 H 0 **** 0.053
5620 H 43.1396 10.4018 14.5258 H 0 **** 0.053
5621 H 41.8776 11.2445 13.5962 H 0 **** 0.053
5622 H 43.2714 12.1483 14.2308 H 0 **** 0.053
5623 H 43.8 9.30803 10.9683 H 0 **** 0.053
5624 H 42.1659 9.63827 11.5911 H 0 **** 0.053
5625 H 43.3361 8.74191 12.5891 H 0 **** 0.053
5626 H 35.6486 18.6437 16.2734 H 0 **** 0.41
5627 H 36.7383 23.0516 29.2653 H 0 **** 0.053
5628 H 35.8424 24.3917 31.3122 H 0 **** 0.053
5629 H 33.8813 25.238 32.6974 H 0 **** 0.053
5630 H 31.9446 26.0734 34.1548 H 0 **** 0.053
5631 H 29.3276 26.3114 34.4983 H 0 **** 0.053
5632 H 25.3087 24.5917 32.183 H 0 **** 0.053
5633 H 26.9342 25.7953 33.6871 H 0 **** 0.053
5634 H 27.7211 20.7493 26.7179 H 0 **** 0.053
5635 H 26.0754 21.8871 26.5783 H 0 **** 0.053
5636 H 25.4163 20.665 27.6817 H 0 **** 0.053
5637 H 23.5683 22.0899 26.8213 H 0 **** 0.053
5638 H 24.4384 23.5486 27.2956 H 0 **** 0.053
5639 H 23.4393 21.3585 29.2347 H 0 **** 0.053
5640 H 22.7071 22.9729 29.0869 H 0 **** 0.053
5641 C 77.307 1.24157 52.7957 C.3 0 **** 0.054
5642 C 77.1045 0.788435 54.2705 C.3 0 **** -0.106
5643 C 76.808 -0.734809 54.3523 C.3 0 **** -0.053
5644 C 75.8697 -1.11364 53.1811 C.3 0 **** -0.053
5645 C 76.5304 -0.732915 51.8221 C.3 0 **** 0.054
5646 O 77.6419 0.139117 51.969 O.3 0 **** -0.32
5647 C 74.4754 -0.439943 53.346 C.3 0 **** -0.053
5648 C 74.0097 -0.369458 54.8504 C.3 0 **** 0.107
5649 C 74.7314 -1.42309 55.6818 C.3 0 **** -0.106
5650 C 76.2491 -1.17998 55.7269 C.3 0 **** -0.106
5651 O 72.6051 -0.571843 55.0413 O.3 0 **** -0.32
5652 C 71.8603 0.124815 54.0545 C.3 0 **** 0.107
5653 C 71.9733 -0.685972 52.7359 C.3 0 **** -0.053
5654 C 73.4259 -1.16195 52.4772 C.3 0 **** -0.106
5655 C 71.4062 -0.00779569 51.515 C.2 0 **** 0
5656 C 71.5448 1.50753 51.4741 C.3 0 **** 0
5657 C 71.4371 2.22106 52.8212 C.3 0 **** 0
5658 C 72.2144 1.6084 53.9798 C.3 0 **** -0.053
5659 C 71.5965 3.72664 52.7474 C.3 0 **** 0
5660 C 70.6234 4.32426 51.737 C.3 0 **** 0
5661 C 70.8417 3.61274 50.3494 C.3 0 **** 0.16
5662 C 70.6395 2.11527 50.422 C.3 0 **** 0
5663 C 70.6839 1.41526 49.0361 C.3 0 **** -0.106
5664 C 70.1235 0.0266761 49.304 C.3 0 **** -0.106
5665 C 70.766 -0.650526 50.5095 C.2 0 **** -0.1268
5666 O 70.2865 4.19489 49.1492 O.3 0 **** -0.32
5667 C 69.5289 5.3558 49.4148 C.3 0 **** 0.16
5668 C 70.1936 6.42197 50.3478 C.3 0 **** 0
5669 C 70.8444 5.85642 51.6355 C.3 0 **** 0
5670 C 71.9144 2.38037 55.2383 C.2 0 **** 0
5671 C 72.457 3.78049 55.1785 C.3 0 **** -0.053
5672 C 71.5533 4.45051 54.1042 C.3 0 **** 0
5673 C 72.3629 4.62125 56.4321 C.2 0 **** 0
5674 C 71.5048 4.21807 57.405 C.2 0 **** 0
5675 C 70.7719 2.88517 57.3886 C.3 0 **** -0.106
5676 C 71.1451 1.96485 56.2382 C.2 0 **** -0.1268
5677 C 71.3807 4.99013 58.6955 C.3 0 **** -0.106
5678 C 71.5559 6.47446 58.4184 C.3 0 **** -0.106
5679 C 72.7785 6.67737 57.54 C.2 0 **** 0
5680 C 73.1356 5.74188 56.6015 C.2 0 **** 0
5681 C 74.328 6.00841 55.7021 C.3 0 **** -0.106
5682 C 75.2512 7.10447 56.2144 C.3 0 **** -0.053
5683 C 74.4197 8.35031 56.5644 C.3 0 **** -0.106
5684 C 73.4581 8.01965 57.7112 C.3 0 **** -0.106
5685 C 70.6134 6.51039 53.0038 C.3 0 **** 0.147
5686 C 71.6638 5.99419 53.9761 C.3 0 **** -0.053
5687 C 69.373 7.70016 50.5522 C.3 0 **** 0
5688 C 69.9741 8.75546 51.489 C.3 0 **** 0.147
5689 S 70.6435 8.32552 53.0778 S.3 0 **** -0.294
5690 C 69.2059 10.0458 51.5682 C.3 0 **** -0.053
5691 C 69.0067 10.5906 50.1475 C.3 0 **** 0
5692 C 68.2845 9.54635 49.2123 C.3 0 **** 0
5693 C 69.1258 8.25658 49.1221 C.3 0 **** 0
5694 C 68.1167 10.161 47.8303 C.3 0 **** 0
5695 C 67.2887 11.4259 47.9373 C.3 0 **** 0
5696 C 67.9206 12.512 48.9057 C.3 0 **** 0
5697 C 68.1314 11.8717 50.3264 C.3 0 **** -0.053
5698 C 66.9045 13.6837 49.0102 C.3 0 **** 0
5699 C 66.8742 14.361 47.6575 C.3 0 **** 0.16
5700 C 66.5056 13.4062 46.5181 C.3 0 **** 0
5701 C 66.7968 11.9363 46.6113 C.3 0 **** 0
5702 C 68.5764 7.20558 48.1209 C.3 0 **** 0
5703 C 69.4305 5.94482 48.031 C.3 0 **** -0.053
5704 C 67.7938 9.20649 46.6595 C.3 0 **** 0
5705 C 67.8074 7.68943 46.8618 C.3 0 **** 0
5706 C 66.9447 11.1254 45.3238 C.3 0 **** 0
5707 C 66.7491 9.62714 45.622 C.3 0 **** 0
5708 C 65.7757 13.9209 45.2771 C.3 0 **** 0
5709 C 66.0101 13.0052 44.0343 C.3 0 **** 0
5710 C 65.8352 11.4998 44.3077 C.3 0 **** 0
5711 O 66.0877 15.5278 47.7637 O.3 0 **** -0.32
5712 C 67.0356 16.4938 48.2156 C.3 0 **** 0.107
5713 C 67.7553 15.9859 49.5065 C.3 0 **** -0.053
5714 C 67.0092 14.7877 50.0898 C.3 0 **** 0.107
5715 C 67.871 17.1146 50.5415 C.3 0 **** -0.106
5716 C 68.2122 18.4411 49.838 C.3 0 **** -0.106
5717 C 67.0122 18.9333 49.0073 C.3 0 **** 0.134
5718 C 66.2125 17.7519 48.3954 C.3 0 **** -0.053
5719 C 65.5339 18.1341 47.0566 C.3 0 **** -0.106
5720 C 65.0775 19.5865 47.1054 C.3 0 **** -0.106
5721 C 66.2892 20.5371 47.3492 C.3 0 **** 0.081
5722 N 67.4266 19.8981 48.0086 N.3 0 **** -0.727
5723 C 67.9536 6.90876 45.5281 C.3 0 **** 0.16
5724 C 66.8319 7.32454 44.5894 C.3 0 **** 0.16
5725 C 66.9916 8.78686 44.2877 C.3 0 **** 0
5726 O 66.7648 6.58986 43.3859 O.3 0 **** -0.32
5727 C 66.8128 5.19602 43.6707 C.3 0 **** 0.107
5728 C 68.084 4.88854 44.4007 C.3 0 **** 0.107
5729 O 67.9922 5.49804 45.6775 O.3 0 **** -0.32
5730 C 69.3388 5.36671 43.6251 C.3 0 **** -0.106
5731 C 69.0966 5.38679 42.0884 C.3 0 **** -0.106
5732 C 68.0999 4.27854 41.6944 C.3 0 **** -0.106
5733 C 66.7023 4.4926 42.3416 C.3 0 **** -0.106
5734 C 66.0172 10.6808 42.9529 C.3 0 **** 0
5735 C 65.866 9.15838 43.2678 C.3 0 **** -0.053
5736 C 64.9889 13.3868 42.9502 C.3 0 **** 0
5737 C 65.1208 12.5131 41.6853 C.3 0 **** 0.16
5738 C 64.9783 11.0586 41.9125 C.3 0 **** -0.053
5739 C 65.2566 14.909 42.6258 C.3 0 **** 0
5740 C 65.0612 15.794 43.9236 C.3 0 **** 0
5741 C 66.1647 15.379 44.9087 C.3 0 **** -0.053
5742 O 64.3001 12.8613 40.6181 O.3 0 **** -0.32
5743 C 64.358 14.2707 40.4255 C.3 0 **** 0.16
5744 C 64.1008 15.2119 41.6772 C.3 0 **** 0
5745 C 65.1056 17.33 43.691 C.3 0 **** -0.053
5746 C 64.1902 17.69 42.5228 C.3 0 **** -0.053
5747 C 64.2632 16.6915 41.3074 C.3 0 **** 0
5748 C 64.6137 18.9814 41.9105 C.3 0 **** -0.053
5749 C 65.0321 19.9652 42.9709 C.3 0 **** -0.106
5750 C 66.3629 19.4666 43.6041 C.3 0 **** -0.106
5751 C 66.5119 17.9353 43.4928 C.3 0 **** -0.106
5752 C 63.1738 17.0231 40.3152 C.3 0 **** 0
5753 C 63.1372 16.0615 39.0905 C.3 0 **** 0
5754 C 63.3605 14.5729 39.3413 C.3 0 **** 0
5755 C 63.3654 19.4043 41.1404 C.3 0 **** 0
5756 C 63.1913 18.4829 39.9193 C.3 0 **** 0
5757 C 76.4206 7.37895 55.2337 C.3 0 **** -0.053
5758 C 75.9842 8.13713 53.9713 C.3 0 **** -0.159
5759 C 77.5662 8.12511 55.9275 C.3 0 **** -0.159
5760 O 67.5889 14.3833 51.3228 O.3 0 **** -0.57
5761 C 62.8939 13.4821 38.3366 C.3 0 **** -0.053
5762 C 62.4934 13.9884 36.9478 C.3 0 **** -0.053
5763 C 61.6644 15.2791 37.0697 C.3 0 **** 0
5764 C 62.3979 16.4336 37.8191 C.3 0 **** 0
5765 C 61.8009 17.8284 37.8723 C.3 0 **** 0
5766 C 60.825 18.1894 36.7916 C.3 0 **** 0
5767 C 60.5563 17.1331 35.6906 C.3 0 **** 0
5768 C 61.2669 15.7586 35.6705 C.3 0 **** -0.053
5769 C 59.752 17.5425 34.4645 C.3 0 **** -0.053
5770 C 59.4053 19.0365 34.2824 C.3 0 **** -0.053
5771 C 59.4899 19.9644 35.5333 C.3 0 **** 0
5772 C 60.723 19.6923 36.4339 C.3 0 **** 0
5773 C 60.7072 20.5774 37.7409 C.3 0 **** 0
5774 C 61.9746 20.2699 38.6249 C.3 0 **** 0
5775 C 61.9825 18.7883 39.0536 C.3 0 **** 0
5776 C 60.6728 22.0842 37.3306 C.3 0 **** 0
5777 C 59.3971 22.3322 36.4422 C.3 0 **** -0.053
5778 C 59.3995 21.4582 35.1731 C.3 0 **** -0.053
5779 C 63.346 20.8857 40.7105 C.3 0 **** -0.053
5780 C 61.9581 21.1203 39.9583 C.3 0 **** 0
5781 C 60.6237 22.9937 38.6414 C.3 0 **** 0.02
5782 C 61.7986 22.6538 39.6246 C.3 0 **** 0
5783 C 61.9695 23.5141 40.8991 C.3 0 **** -0.106
5784 C 60.9276 24.5969 40.9198 C.3 0 **** -0.106
5785 C 60.9045 25.3289 39.5828 C.3 0 **** -0.086
5786 C 60.6356 24.4979 38.3826 C.2 0 **** 0.379
5787 O 60.3716 25.03 37.3179 O.2 0 **** -0.419
5788 H 78.1346 1.95944 52.7155 H 0 **** 0.053
5789 H 76.41 1.75841 52.4208 H 0 **** 0.053
5790 H 77.9928 1.01243 54.8932 H 0 **** 0.053
5791 H 76.2799 1.3634 54.7315 H 0 **** 0.053
5792 H 77.7667 -1.24953 54.1776 H 0 **** 0.053
5793 H 75.6993 -2.20537 53.221 H 0 **** 0.053
5794 H 75.7908 -0.296969 51.1281 H 0 **** 0.053
5795 H 76.9227 -1.62999 51.3305 H 0 **** 0.053
5796 H 74.5815 0.583754 52.9471 H 0 **** 0.053
5797 H 74.2864 0.614223 55.2724 H 0 **** 0.053
5798 H 74.5053 -2.41138 55.2385 H 0 **** 0.053
5799 H 74.2982 -1.43215 56.6946 H 0 **** 0.053
5800 H 76.7531 -2.09659 56.0628 H 0 **** 0.053
5801 H 76.4669 -0.4114 56.482 H 0 **** 0.053
5802 H 70.8134 0.0464566 54.3543 H 0 **** 0.053
5803 H 71.3676 -1.58848 52.8751 H 0 **** 0.053
5804 H 73.7203 -1.10679 51.4062 H 0 **** 0.053
5805 H 73.4711 -2.23139 52.7486 H 0 **** 0.053
5806 H 73.2846 1.76241 53.7745 H 0 **** 0.053
5807 H 70.0548 1.96916 48.3116 H 0 **** 0.053
5808 H 71.7151 1.39729 48.6259 H 0 **** 0.053
5809 H 70.2069 -0.604213 48.4157 H 0 **** 0.053
5810 H 69.0467 0.138524 49.5288 H 0 **** 0.053
5811 H 70.685 -1.73304 50.5069 H 0 **** 0.1268
5812 H 73.5081 3.7465 54.8022 H 0 **** 0.053
5813 H 69.6544 3.05754 57.3818 H 0 **** 0.053
5814 H 70.993 2.33867 58.3493 H 0 **** 0.053
5815 H 70.7232 0.964494 56.2665 H 0 **** 0.1268
5816 H 70.4201 4.77945 59.2117 H 0 **** 0.053
5817 H 72.1852 4.6298 59.3558 H 0 **** 0.053
5818 H 71.6345 7.05229 59.3608 H 0 **** 0.053
5819 H 70.6682 6.86119 57.8818 H 0 **** 0.053
5820 H 74.9137 5.08139 55.6142 H 0 **** 0.053
5821 H 73.9965 6.25906 54.6757 H 0 **** 0.053
5822 H 75.7044 6.73113 57.1559 H 0 **** 0.053
5823 H 73.8438 8.6648 55.6794 H 0 **** 0.053
5824 H 75.0569 9.2004 56.8469 H 0 **** 0.053
5825 H 72.7006 8.83114 57.8156 H 0 **** 0.053
5826 H 74.0277 7.99957 58.6676 H 0 **** 0.053
5827 H 71.5402 6.53555 54.9765 H 0 **** 0.053
5828 H 69.6352 10.8317 52.2594 H 0 **** 0.053
5829 H 68.7576 12.5807 50.9561 H 0 **** 0.053
5830 H 69.0143 5.14377 47.3525 H 0 **** 0.053
5831 H 67.7741 16.6583 47.413 H 0 **** 0.053
5832 H 68.7929 15.6846 49.254 H 0 **** 0.053
5833 H 65.9833 15.082 50.2626 H 0 **** 0.053
5834 H 66.9053 17.2226 51.082 H 0 **** 0.053
5835 H 68.6301 16.8481 51.3122 H 0 **** 0.053
5836 H 69.0779 18.2522 49.1819 H 0 **** 0.053
5837 H 68.5207 19.2171 50.5562 H 0 **** 0.053
5838 H 66.3328 19.4538 49.7016 H 0 **** 0.053
5839 H 65.414 17.4687 49.1119 H 0 **** 0.053
5840 H 66.2849 18.049 46.2574 H 0 **** 0.053
5841 H 64.7106 17.4369 46.821 H 0 **** 0.053
5842 H 64.3424 19.6762 47.9259 H 0 **** 0.053
5843 H 64.5377 19.8693 46.1854 H 0 **** 0.053
5844 H 65.9659 21.3894 47.9681 H 0 **** 0.053
5845 H 66.6287 20.9746 46.3942 H 0 **** 0.053
5846 H 68.0047 19.4379 47.334 H 0 **** 0.353
5847 H 65.973 4.96529 44.3256 H 0 **** 0.053
5848 H 68.1661 3.81529 44.5518 H 0 **** 0.053
5849 H 69.6574 6.38388 43.9371 H 0 **** 0.053
5850 H 70.2155 4.72388 43.8519 H 0 **** 0.053
5851 H 70.0527 5.27865 41.5373 H 0 **** 0.053
5852 H 68.6849 6.37148 41.7884 H 0 **** 0.053
5853 H 68.5106 3.31877 42.053 H 0 **** 0.053
5854 H 68.0077 4.20103 40.5958 H 0 **** 0.053
5855 H 66.1578 3.53235 42.4066 H 0 **** 0.053
5856 H 66.0954 5.15394 41.6814 H 0 **** 0.053
5857 H 65.9948 8.57582 42.2916 H 0 **** 0.053
5858 H 65.0762 10.4276 41.0041 H 0 **** 0.053
5859 H 66.0873 16.0651 45.7989 H 0 **** 0.053
5860 H 64.6968 17.7446 44.6025 H 0 **** 0.053
5861 H 63.1496 17.7274 42.9004 H 0 **** 0.053
5862 H 65.4578 18.8515 41.2001 H 0 **** 0.053
5863 H 64.2335 20.019 43.7348 H 0 **** 0.053
5864 H 65.1833 21.0002 42.5943 H 0 **** 0.053
5865 H 66.3993 19.7566 44.6734 H 0 **** 0.053
5866 H 67.2195 19.9744 43.1208 H 0 **** 0.053
5867 H 67.2445 17.5702 44.2352 H 0 **** 0.053
5868 H 66.8956 17.6482 42.5052 H 0 **** 0.053
5869 H 76.8182 6.39631 54.9157 H 0 **** 0.053
5870 H 76.8146 8.20892 53.2508 H 0 **** 0.053
5871 H 75.6674 9.16305 54.2206 H 0 **** 0.053
5872 H 75.143 7.64513 53.4572 H 0 **** 0.053
5873 H 77.9324 7.56736 56.8042 H 0 **** 0.053
5874 H 77.2378 9.11768 56.2737 H 0 **** 0.053
5875 H 78.417 8.2702 55.2441 H 0 **** 0.053
5876 H 67.0705 13.6369 51.6177 H 0 **** 0.41
5877 H 63.4254 12.4908 38.3959 H 0 **** 0.053
5878 H 61.9689 13.1909 36.3528 H 0 **** 0.053
5879 H 60.717 14.9915 35.0608 H 0 **** 0.053
5880 H 59.4822 16.7756 33.6947 H 0 **** 0.053
5881 H 58.6344 19.2794 33.5095 H 0 **** 0.053
5882 H 59.2729 23.4106 36.1546 H 0 **** 0.053
5883 H 58.5379 21.6609 34.4959 H 0 **** 0.053
5884 H 63.4247 21.584 41.6206 H 0 **** 0.053
5885 H 61.9219 22.8969 41.8134 H 0 **** 0.053
5886 H 62.9809 23.9079 40.8121 H 0 **** 0.053
5887 H 61.1346 25.2977 41.7267 H 0 **** 0.053
5888 H 59.9375 24.1442 41.1306 H 0 **** 0.053
5889 H 61.8782 25.7733 39.3612 H 0 **** 0.053
5890 H 60.1318 26.0878 39.4824 H 0 **** 0.053
5891 C 57.7469 98.8548 70.9937 C.3 0 **** 0.054
5892 C 57.6651 99.6638 72.3203 C.3 0 **** -0.106
5893 C 59.0025 100.4 72.6102 C.3 0 **** -0.053
5894 C 60.1709 99.4607 72.2261 C.3 0 **** -0.053
5895 C 60.0576 99.0525 70.7265 C.3 0 **** 0.054
5896 O 58.7867 99.3468 70.1644 O.3 0 **** -0.32
5897 C 60.2087 98.2121 73.1559 C.3 0 **** -0.053
5898 C 59.8142 98.5515 74.644 C.3 0 **** 0.107
5899 C 60.028 100.033 74.9272 C.3 0 **** -0.106
5900 C 59.1155 100.921 74.0646 C.3 0 **** -0.106
5901 O 60.5548 97.8232 75.6296 O.3 0 **** -0.32
5902 C 60.6975 96.4646 75.2457 C.3 0 **** 0.107
5903 C 61.7846 96.4114 74.1392 C.3 0 **** -0.053
5904 C 61.5946 97.5395 73.0928 C.3 0 **** -0.106
5905 C 61.9462 95.0743 73.4624 C.2 0 **** 0
5906 C 60.673 94.2563 73.2984 C.3 0 **** 0
5907 C 59.6516 94.3834 74.428 C.3 0 **** 0
5908 C 59.363 95.7931 74.9291 C.3 0 **** -0.053
5909 C 58.3887 93.5698 74.2258 C.3 0 **** 0
5910 C 58.7254 92.1066 73.9598 C.3 0 **** 0
5911 C 59.7088 92.0335 72.7323 C.3 0 **** 0.16
5912 C 60.9853 92.813 72.9588 C.3 0 **** 0
5913 C 62.0393 92.6181 71.8346 C.3 0 **** -0.106
5914 C 63.3212 93.1851 72.4256 C.3 0 **** -0.106
5915 C 63.1297 94.5647 73.0457 C.2 0 **** -0.1268
5916 O 59.9354 90.7702 72.0686 O.3 0 **** -0.32
5917 C 59.2487 89.7049 72.6901 C.3 0 **** 0.16
5918 C 57.7385 89.9485 73.02 C.3 0 **** 0
5919 C 57.4228 91.3056 73.6978 C.3 0 **** 0
5920 C 58.4155 95.717 76.098 C.2 0 **** 0
5921 C 57.0559 95.2272 75.6858 C.3 0 **** -0.053
5922 C 57.3257 93.7381 75.3253 C.3 0 **** 0
5923 C 55.9592 95.2477 76.7274 C.2 0 **** 0
5924 C 56.3213 95.3653 78.0317 C.2 0 **** 0
5925 C 57.744 95.6487 78.4915 C.3 0 **** -0.106
5926 C 58.7384 95.9088 77.372 C.2 0 **** -0.1268
5927 C 55.2784 95.4239 79.1238 C.3 0 **** -0.106
5928 C 54.1048 94.5317 78.7464 C.3 0 **** -0.106
5929 C 53.7001 94.8209 77.3113 C.2 0 **** 0
5930 C 54.6359 95.1785 76.3735 C.2 0 **** 0
5931 C 54.2016 95.4017 74.9372 C.3 0 **** -0.106
5932 C 52.7024 95.6068 74.7741 C.3 0 **** -0.053
5933 C 51.9504 94.4811 75.5044 C.3 0 **** -0.106
5934 C 52.2399 94.5619 77.0072 C.3 0 **** -0.106
5935 C 56.4987 91.3954 74.9189 C.3 0 **** 0.147
5936 C 56.0746 92.8448 75.106 C.3 0 **** -0.053
5937 C 57.0086 88.7442 73.6249 C.3 0 **** 0
5938 C 55.5349 88.9536 73.9948 C.3 0 **** 0.147
5939 S 54.9913 90.3812 74.9023 S.3 0 **** -0.294
5940 C 54.8181 87.7197 74.4686 C.3 0 **** -0.053
5941 C 54.9908 86.6142 73.4184 C.3 0 **** 0
5942 C 56.5109 86.3183 73.1199 C.3 0 **** 0
5943 C 57.1983 87.5956 72.5952 C.3 0 **** 0
5944 C 56.5987 85.2104 72.0801 C.3 0 **** 0
5945 C 55.9194 83.9641 72.6119 C.3 0 **** 0
5946 C 54.3946 84.191 72.988 C.3 0 **** 0
5947 C 54.2934 85.3599 74.0351 C.3 0 **** -0.053
5948 C 53.8774 82.8731 73.6301 C.3 0 **** 0
5949 C 53.8405 81.8335 72.531 C.3 0 **** 0.16
5950 C 55.2024 81.625 71.8619 C.3 0 **** 0
5951 C 56.2184 82.7289 71.8085 C.3 0 **** 0
5952 C 58.6681 87.3885 72.1419 C.3 0 **** 0
5953 C 59.3263 88.6573 71.6093 C.3 0 **** -0.053
5954 C 57.9487 85.0194 71.3538 C.3 0 **** 0
5955 C 59.094 86.0139 71.5592 C.3 0 **** 0
5956 C 57.2801 82.7118 70.7088 C.3 0 **** 0
5957 C 58.4711 83.6001 71.114 C.3 0 **** 0
5958 C 55.5769 80.268 71.2652 C.3 0 **** 0
5959 C 56.6654 80.392 70.153 C.3 0 **** 0
5960 C 57.8617 81.2865 70.5262 C.3 0 **** 0
5961 O 53.2216 80.6726 73.0415 O.3 0 **** -0.32
5962 C 51.8381 80.9426 72.8189 C.3 0 **** 0.107
5963 C 51.4424 82.3133 73.4572 C.3 0 **** -0.053
5964 C 52.5405 82.7893 74.4061 C.3 0 **** 0.107
5965 C 50.0974 82.2012 74.1898 C.3 0 **** -0.106
5966 C 49.1277 81.3235 73.3774 C.3 0 **** -0.106
5967 C 49.5877 79.8541 73.395 C.3 0 **** 0.134
5968 C 51.1356 79.7368 73.407 C.3 0 **** -0.053
5969 C 51.6314 78.4456 72.7097 C.3 0 **** -0.106
5970 C 50.6505 77.3094 72.9695 C.3 0 **** -0.106
5971 C 49.2347 77.6684 72.4241 C.3 0 **** 0.081
5972 N 48.9838 79.1039 72.3124 N.3 0 **** -0.727
5973 C 60.1468 85.9581 70.4199 C.3 0 **** 0.16
5974 C 60.6725 84.5358 70.3054 C.3 0 **** 0.16
5975 C 59.528 83.6432 69.9196 C.3 0 **** 0
5976 O 61.739 84.3705 69.3954 O.3 0 **** -0.32
5977 C 62.7384 85.3535 69.643 C.3 0 **** 0.107
5978 C 62.1329 86.7157 69.4974 C.3 0 **** 0.107
5979 O 61.2142 86.8821 70.5643 O.3 0 **** -0.32
5980 C 61.4529 86.9134 68.1178 C.3 0 **** -0.106
5981 C 62.1125 86.0347 67.0163 C.3 0 **** -0.106
5982 C 63.6119 85.8424 67.3188 C.3 0 **** -0.106
5983 C 63.8456 85.0834 68.6557 C.3 0 **** -0.106
5984 C 58.937 81.2672 69.3504 C.3 0 **** 0
5985 C 60.1213 82.207 69.7435 C.3 0 **** -0.053
5986 C 57.2257 78.9902 69.8622 C.3 0 **** 0
5987 C 58.335 79.0108 68.7907 C.3 0 **** 0.16
5988 C 59.4919 79.8758 69.1053 C.3 0 **** -0.053
5989 C 55.9915 78.1236 69.3937 C.3 0 **** 0
5990 C 54.89 78.0688 70.5293 C.3 0 **** 0
5991 C 54.3549 79.4998 70.692 C.3 0 **** -0.053
5992 O 58.8236 77.7696 68.3988 O.3 0 **** -0.32
5993 C 57.7292 76.8908 68.1623 C.3 0 **** 0.16
5994 C 56.6277 76.7405 69.2946 C.3 0 **** 0
5995 C 53.7139 77.0879 70.2648 C.3 0 **** -0.053
5996 C 54.2739 75.7303 69.8455 C.3 0 **** -0.053
5997 C 55.4931 75.8082 68.852 C.3 0 **** 0
5998 C 53.2601 74.9713 69.0593 C.3 0 **** -0.053
5999 C 51.8831 75.158 69.6393 C.3 0 **** -0.106
6000 C 51.4401 76.6278 69.3867 C.3 0 **** -0.106
6001 C 52.6494 77.5769 69.2592 C.3 0 **** -0.106
6002 C 56.0917 74.4324 68.6782 C.3 0 **** 0
6003 C 57.3343 74.4121 67.7395 C.3 0 **** 0
6004 C 58.3429 75.551 67.8618 C.3 0 **** 0
6005 C 53.7764 73.538 69.1553 C.3 0 **** 0
6006 C 55.0495 73.4034 68.2999 C.3 0 **** 0
6007 C 52.3016 95.7737 73.2854 C.3 0 **** -0.053
6008 C 52.3536 94.4575 72.4958 C.3 0 **** -0.159
6009 C 50.916 96.4158 73.15 C.3 0 **** -0.159
6010 O 52.1478 83.9786 75.0782 O.3 0 **** -0.57
6011 C 59.8079 75.4211 67.3572 C.3 0 **** -0.053
6012 C 60.093 74.2189 66.4518 C.3 0 **** -0.053
6013 C 59.3882 72.9637 66.9969 C.3 0 **** 0
6014 C 57.8418 73.1168 67.1341 C.3 0 **** 0
6015 C 56.9696 71.9229 67.4802 C.3 0 **** 0
6016 C 57.5259 70.5642 67.1705 C.3 0 **** 0
6017 C 58.9045 70.5022 66.4662 C.3 0 **** 0
6018 C 59.6977 71.7743 66.0822 C.3 0 **** -0.053
6019 C 59.3982 69.1615 65.9401 C.3 0 **** -0.053
6020 C 58.4161 67.9695 65.9435 C.3 0 **** -0.053
6021 C 57.1685 68.0542 66.8761 C.3 0 **** 0
6022 C 56.4894 69.4488 66.8897 C.3 0 **** 0
6023 C 55.3017 69.5175 67.9272 C.3 0 **** 0
6024 C 54.6415 70.9478 67.9086 C.3 0 **** 0
6025 C 55.6777 72.0215 68.2992 C.3 0 **** 0
6026 C 54.2508 68.4196 67.5663 C.3 0 **** 0
6027 C 54.9645 67.0167 67.5884 C.3 0 **** -0.053
6028 C 56.1354 66.9498 66.5889 C.3 0 **** -0.053
6029 C 52.7462 72.4561 68.7705 C.3 0 **** -0.053
6030 C 53.4726 71.0489 68.9692 C.3 0 **** 0
6031 C 53.0574 68.4538 68.6259 C.3 0 **** 0.02
6032 C 52.4295 69.8873 68.7426 C.3 0 **** 0
6033 C 51.1878 70.0801 69.6452 C.3 0 **** -0.106
6034 C 50.7856 68.7591 70.2381 C.3 0 **** -0.106
6035 C 50.6956 67.6991 69.1462 C.3 0 **** -0.086
6036 C 51.9316 67.4579 68.3604 C.2 0 **** 0.379
6037 O 52.0141 66.4806 67.6363 O.2 0 **** -0.419
6038 H 56.8149 98.9465 70.4196 H 0 **** 0.053
6039 H 57.8804 97.7816 71.2001 H 0 **** 0.053
6040 H 56.8461 100.409 72.2953 H 0 **** 0.053
6041 H 57.4114 98.9885 73.1585 H 0 **** 0.053
6042 H 59.0406 101.261 71.9231 H 0 **** 0.053
6043 H 61.1168 100.008 72.3942 H 0 **** 0.053
6044 H 60.301 97.9851 70.585 H 0 **** 0.053
6045 H 60.782 99.6158 70.1279 H 0 **** 0.053
6046 H 59.479 97.4973 72.7376 H 0 **** 0.053
6047 H 58.737 98.3509 74.7907 H 0 **** 0.053
6048 H 61.0934 100.261 74.7337 H 0 **** 0.053
6049 H 59.8632 100.216 76.001 H 0 **** 0.053
6050 H 59.5005 101.95 74.0706 H 0 **** 0.053
6051 H 58.117 100.961 74.5226 H 0 **** 0.053
6052 H 61.1334 95.9515 76.1053 H 0 **** 0.053
6053 H 62.7418 96.6033 74.6369 H 0 **** 0.053
6054 H 61.8076 97.2112 72.0518 H 0 **** 0.053
6055 H 62.3382 98.3235 73.3208 H 0 **** 0.053
6056 H 58.8207 96.3206 74.1296 H 0 **** 0.053
6057 H 62.1477 91.5409 71.5996 H 0 **** 0.053
6058 H 61.7291 93.1267 70.898 H 0 **** 0.053
6059 H 64.1186 93.2039 71.6787 H 0 **** 0.053
6060 H 63.6447 92.5058 73.2358 H 0 **** 0.053
6061 H 64.0426 95.1466 73.1264 H 0 **** 0.1268
6062 H 56.7374 95.7737 74.7654 H 0 **** 0.053
6063 H 58.121 94.7989 79.1353 H 0 **** 0.053
6064 H 57.734 96.5579 79.1575 H 0 **** 0.053
6065 H 59.7308 96.2293 77.6751 H 0 **** 0.1268
6066 H 55.7038 95.1405 80.111 H 0 **** 0.053
6067 H 54.945 96.4739 79.2069 H 0 **** 0.053
6068 H 53.2547 94.673 79.443 H 0 **** 0.053
6069 H 54.4027 93.4683 78.8214 H 0 **** 0.053
6070 H 54.7129 96.2967 74.5526 H 0 **** 0.053
6071 H 54.5287 94.5624 74.2934 H 0 **** 0.053
6072 H 52.4496 96.5603 75.2821 H 0 **** 0.053
6073 H 52.2866 93.5063 75.1162 H 0 **** 0.053
6074 H 50.8661 94.535 75.3312 H 0 **** 0.053
6075 H 51.895 93.6283 77.5099 H 0 **** 0.053
6076 H 51.6425 95.3919 77.4472 H 0 **** 0.053
6077 H 55.327 92.9033 75.97 H 0 **** 0.053
6078 H 53.7314 87.8603 74.7495 H 0 **** 0.053
6079 H 53.2007 85.6486 74.1533 H 0 **** 0.053
6080 H 60.4143 88.5402 71.3306 H 0 **** 0.053
6081 H 51.6591 80.969 71.7307 H 0 **** 0.053
6082 H 51.2999 83.0647 72.6531 H 0 **** 0.053
6083 H 52.7125 82.0122 75.138 H 0 **** 0.053
6084 H 50.2575 81.7435 75.1903 H 0 **** 0.053
6085 H 49.6798 83.217 74.3759 H 0 **** 0.053
6086 H 49.1256 81.7045 72.3431 H 0 **** 0.053
6087 H 48.0941 81.4036 73.749 H 0 **** 0.053
6088 H 49.226 79.4146 74.3385 H 0 **** 0.053
6089 H 51.4701 79.7012 74.4643 H 0 **** 0.053
6090 H 51.6472 78.6286 71.6252 H 0 **** 0.053
6091 H 52.6607 78.1997 73.0251 H 0 **** 0.053
6092 H 50.6154 77.1443 74.0617 H 0 **** 0.053
6093 H 51.0086 76.3613 72.5331 H 0 **** 0.053
6094 H 48.4679 77.2358 73.0866 H 0 **** 0.053
6095 H 49.0753 77.1991 71.438 H 0 **** 0.053
6096 H 49.3342 79.4541 71.443 H 0 **** 0.353
6097 H 63.0715 85.2312 70.6733 H 0 **** 0.053
6098 H 62.9067 87.4711 69.6064 H 0 **** 0.053
6099 H 60.3697 86.6703 68.1499 H 0 **** 0.053
6100 H 61.485 87.9792 67.8077 H 0 **** 0.053
6101 H 61.9615 86.4817 66.0127 H 0 **** 0.053
6102 H 61.6167 85.0437 66.983 H 0 **** 0.053
6103 H 64.0664 86.8451 67.399 H 0 **** 0.053
6104 H 64.1203 85.3222 66.4867 H 0 **** 0.053
6105 H 64.8485 85.3158 69.0592 H 0 **** 0.053
6106 H 63.8333 83.9873 68.4562 H 0 **** 0.053
6107 H 60.8908 82.1874 68.8969 H 0 **** 0.053
6108 H 60.2906 79.8953 68.3345 H 0 **** 0.053
6109 H 53.5094 79.4536 71.4349 H 0 **** 0.053
6110 H 53.2327 76.9904 71.2285 H 0 **** 0.053
6111 H 54.5846 75.1892 70.7605 H 0 **** 0.053
6112 H 53.2368 75.2833 67.9935 H 0 **** 0.053
6113 H 51.9272 74.9456 70.7243 H 0 **** 0.053
6114 H 51.1154 74.4766 69.2122 H 0 **** 0.053
6115 H 50.7966 76.9726 70.2208 H 0 **** 0.053
6116 H 50.8122 76.6774 68.4764 H 0 **** 0.053
6117 H 52.3342 78.6201 69.4418 H 0 **** 0.053
6118 H 53.0671 77.5478 68.2444 H 0 **** 0.053
6119 H 53.029 96.4704 72.8271 H 0 **** 0.053
6120 H 52.1774 94.637 71.4231 H 0 **** 0.053
6121 H 51.5792 93.7576 72.85 H 0 **** 0.053
6122 H 53.3275 93.951 72.5899 H 0 **** 0.053
6123 H 50.876 97.3902 73.6625 H 0 **** 0.053
6124 H 50.1384 95.7722 73.5905 H 0 **** 0.053
6125 H 50.6575 96.5829 72.0931 H 0 **** 0.053
6126 H 52.8829 84.2085 75.6433 H 0 **** 0.41
6127 H 60.3421 76.3854 67.1259 H 0 **** 0.053
6128 H 61.198 74.0656 66.305 H 0 **** 0.053
6129 H 60.795 71.5793 65.9353 H 0 **** 0.053
6130 H 60.4229 69.0811 65.4961 H 0 **** 0.053
6131 H 58.859 66.9583 65.7633 H 0 **** 0.053
6132 H 54.256 66.1674 67.3934 H 0 **** 0.053
6133 H 56.6174 65.946 66.5401 H 0 **** 0.053
6134 H 51.8118 72.5155 69.4378 H 0 **** 0.053
6135 H 51.3728 70.8314 70.4329 H 0 **** 0.053
6136 H 50.4354 70.4817 68.9683 H 0 **** 0.053
6137 H 49.8278 68.855 70.7465 H 0 **** 0.053
6138 H 51.5303 68.4632 71.0047 H 0 **** 0.053
6139 H 49.9692 67.9839 68.3809 H 0 **** 0.053
6140 H 50.4754 66.6922 69.4938 H 0 **** 0.053
6141 C 68.7378 81.1723 8.90606 C.3 0 **** 0.054
6142 C 69.3923 81.038 10.3113 C.3 0 **** -0.106
6143 C 70.6095 80.0727 10.2717 C.3 0 **** -0.053
6144 C 70.258 78.8803 9.34998 C.3 0 **** -0.053
6145 C 69.8918 79.3955 7.92566 C.3 0 **** 0.054
6146 O 69.6474 80.7943 7.88591 O.3 0 **** -0.32
6147 C 69.108 78.0261 9.96066 C.3 0 **** -0.053
6148 C 69.1999 77.9184 11.5307 C.3 0 **** 0.107
6149 C 70.6249 78.1844 12.0005 C.3 0 **** -0.106
6150 C 71.0795 79.6171 11.6757 C.3 0 **** -0.106
6151 O 68.8142 76.6437 12.0564 O.3 0 **** -0.32
6152 C 67.6535 76.1611 11.3982 C.3 0 **** 0.107
6153 C 68.0975 75.6448 10.0035 C.3 0 **** -0.053
6154 C 69.0785 76.627 9.31315 C.3 0 **** -0.106
6155 C 66.9745 75.2661 9.07217 C.2 0 **** 0
6156 C 65.7056 76.0986 9.19116 C.3 0 **** 0
6157 C 65.3552 76.578 10.5992 C.3 0 **** 0
6158 C 66.4972 77.1584 11.4242 C.3 0 **** -0.053
6159 C 64.0961 77.4181 10.6802 C.3 0 **** 0
6160 C 62.9173 76.6873 10.0465 C.3 0 **** 0
6161 C 63.3041 76.2966 8.57094 C.3 0 **** 0.16
6162 C 64.5376 75.4236 8.50101 C.3 0 **** 0
6163 C 64.8396 74.8893 7.07419 C.3 0 **** -0.106
6164 C 65.8694 73.7926 7.29946 C.3 0 **** -0.106
6165 C 67.0206 74.2342 8.19638 C.2 0 **** -0.1268
6166 O 62.2747 75.8871 7.64348 O.3 0 **** -0.32
6167 C 60.9995 75.8305 8.24575 C.3 0 **** 0.16
6168 C 60.5783 77.0724 9.09978 C.3 0 **** 0
6169 C 61.6552 77.5884 10.0878 C.3 0 **** 0
6170 C 65.9919 77.4846 12.8056 C.2 0 **** 0
6171 C 64.9935 78.6076 12.7861 C.3 0 **** -0.053
6172 C 63.7667 77.9598 12.0822 C.3 0 **** 0
6173 C 64.5178 79.1446 14.1179 C.2 0 **** 0
6174 C 64.7308 78.3848 15.224 C.2 0 **** 0
6175 C 65.5667 77.113 15.2276 C.3 0 **** -0.106
6176 C 66.257 76.7973 13.9108 C.2 0 **** -0.1268
6177 C 64.3106 78.8712 16.5916 C.3 0 **** -0.106
6178 C 63.0233 79.6733 16.4663 C.3 0 **** -0.106
6179 C 63.166 80.6714 15.3303 C.2 0 **** 0
6180 C 63.9143 80.3721 14.2194 C.2 0 **** 0
6181 C 63.9852 81.3709 13.0797 C.3 0 **** -0.106
6182 C 63.5505 82.7768 13.4678 C.3 0 **** -0.053
6183 C 62.1892 82.7124 14.1806 C.3 0 **** -0.106
6184 C 62.3312 81.9249 15.4875 C.3 0 **** -0.106
6185 C 61.3083 77.9368 11.5411 C.3 0 **** 0.147
6186 C 62.4406 78.7663 12.1285 C.3 0 **** -0.053
6187 C 59.1593 77.0066 9.67528 C.3 0 **** 0
6188 C 58.721 78.1887 10.5492 C.3 0 **** 0.147
6189 S 59.7593 78.8392 11.8361 S.3 0 **** -0.294
6190 C 57.2841 78.1536 10.9918 C.3 0 **** -0.053
6191 C 56.3892 77.9939 9.75539 C.3 0 **** 0
6192 C 56.7661 76.7127 8.91704 C.3 0 **** 0
6193 C 58.231 76.8102 8.44406 C.3 0 **** 0
6194 C 55.8328 76.6202 7.71864 C.3 0 **** 0
6195 C 54.3993 76.5254 8.20097 C.3 0 **** 0
6196 C 53.9549 77.7542 9.10041 C.3 0 **** 0
6197 C 54.9381 77.8783 10.3212 C.3 0 **** -0.053
6198 C 52.5205 77.4524 9.61773 C.3 0 **** 0
6199 C 51.5991 77.5137 8.41916 C.3 0 **** 0.16
6200 C 52.0027 76.5449 7.30351 C.3 0 **** 0
6201 C 53.43 76.1133 7.12794 C.3 0 **** 0
6202 C 58.6728 75.6632 7.49643 C.3 0 **** 0
6203 C 60.1183 75.7858 7.0239 C.3 0 **** -0.053
6204 C 56.2484 75.6852 6.56143 C.3 0 **** 0
6205 C 57.6226 75.0114 6.55651 C.3 0 **** 0
6206 C 53.8964 75.6329 5.75357 C.3 0 **** 0
6207 C 55.1864 74.8039 5.89785 C.3 0 **** 0
6208 C 50.9465 75.9441 6.37513 C.3 0 **** 0
6209 C 51.5526 75.4963 5.00723 C.3 0 **** 0
6210 C 52.8516 74.6771 5.12186 C.3 0 **** 0
6211 O 50.2686 77.4077 8.87698 O.3 0 **** -0.32
6212 C 49.9436 78.7628 9.18413 C.3 0 **** 0.107
6213 C 51.0008 79.3661 10.1643 C.3 0 **** -0.053
6214 C 51.859 78.2543 10.7643 C.3 0 **** 0.107
6215 C 50.3121 80.1817 11.2685 C.3 0 **** -0.106
6216 C 49.139 80.9842 10.6763 C.3 0 **** -0.106
6217 C 47.9966 80.0388 10.2605 C.3 0 **** 0.134
6218 C 48.5352 78.6815 9.73395 C.3 0 **** -0.053
6219 C 47.5938 78.0456 8.68105 C.3 0 **** -0.106
6220 C 46.1437 78.3504 9.03401 C.3 0 **** -0.106
6221 C 45.8972 79.8897 9.07072 C.3 0 **** 0.081
6222 N 47.1003 80.6814 9.32067 N.3 0 **** -0.727
6223 C 58.0512 74.5355 5.14247 C.3 0 **** 0.16
6224 C 56.9834 73.6024 4.59317 C.3 0 **** 0.16
6225 C 55.7083 74.3828 4.45027 C.3 0 **** 0
6226 O 57.3105 72.9868 3.36566 O.3 0 **** -0.32
6227 C 58.6118 72.4156 3.44635 C.3 0 **** 0.107
6228 C 59.6006 73.4928 3.77084 C.3 0 **** 0.107
6229 O 59.3312 73.9245 5.09408 O.3 0 **** -0.32
6230 C 59.5437 74.668 2.76073 C.3 0 **** -0.106
6231 C 59.0595 74.2021 1.35753 C.3 0 **** -0.106
6232 C 59.5009 72.7475 1.10048 C.3 0 **** -0.106
6233 C 58.8632 71.7556 2.11416 C.3 0 **** -0.106
6234 C 53.324 74.2104 3.67322 C.3 0 **** 0
6235 C 54.6583 73.4111 3.81868 C.3 0 **** -0.053
6236 C 50.5237 74.6085 4.2878 C.3 0 **** 0
6237 C 51.0431 74.088 2.93165 C.3 0 **** 0.16
6238 C 52.301 73.3138 2.99961 C.3 0 **** -0.053
6239 C 49.2377 75.5065 4.10265 C.3 0 **** 0
6240 C 48.6886 75.9834 5.50873 C.3 0 **** 0
6241 C 49.7588 76.9092 6.10738 C.3 0 **** -0.053
6242 O 50.1339 73.36 2.17241 O.3 0 **** -0.32
6243 C 48.8869 74.0462 2.15328 C.3 0 **** 0.16
6244 C 48.2512 74.4888 3.53831 C.3 0 **** 0
6245 C 47.3158 76.7117 5.47152 C.3 0 **** -0.053
6246 C 46.3317 75.8901 4.64142 C.3 0 **** -0.053
6247 C 46.9461 75.2677 3.33195 C.3 0 **** 0
6248 C 45.2463 76.7627 4.11025 C.3 0 **** -0.053
6249 C 44.8207 77.7753 5.14028 C.3 0 **** -0.106
6250 C 45.9786 78.7967 5.33152 C.3 0 **** -0.106
6251 C 47.3499 78.1783 4.98973 C.3 0 **** -0.106
6252 C 45.953 74.3132 2.7123 C.3 0 **** 0
6253 C 46.4861 73.6142 1.42663 C.3 0 **** 0
6254 C 47.9372 73.1408 1.41841 C.3 0 **** 0
6255 C 44.1574 75.7531 3.75641 C.3 0 **** 0
6256 C 44.5964 74.9529 2.5165 C.3 0 **** 0
6257 C 63.5857 83.7467 12.2583 C.3 0 **** -0.053
6258 C 62.4395 83.5116 11.2635 C.3 0 **** -0.159
6259 C 63.5946 85.2096 12.7169 C.3 0 **** -0.159
6260 O 52.7522 78.7763 11.7387 O.3 0 **** -0.57
6261 C 48.4489 72.0465 0.439133 C.3 0 **** -0.053
6262 C 47.508 71.7018 -0.719909 C.3 0 **** -0.053
6263 C 46.0551 71.618 -0.216111 C.3 0 **** 0
6264 C 45.5428 72.9308 0.454335 C.3 0 **** 0
6265 C 44.0819 73.0904 0.83773 C.3 0 **** 0
6266 C 43.0914 72.2264 0.113069 C.3 0 **** 0
6267 C 43.6348 71.3152 -1.01619 C.3 0 **** 0
6268 C 45.136 71.2601 -1.38932 C.3 0 **** -0.053
6269 C 42.6421 70.5878 -1.91278 C.3 0 **** -0.053
6270 C 41.1504 70.9757 -1.81206 C.3 0 **** -0.053
6271 C 40.6737 71.7048 -0.517275 C.3 0 **** 0
6272 C 41.6566 72.7951 -0.0139685 C.3 0 **** 0
6273 C 41.1864 73.4279 1.35379 C.3 0 **** 0
6274 C 42.21 74.5279 1.8276 C.3 0 **** 0
6275 C 43.6042 73.9051 2.04508 C.3 0 **** 0
6276 C 39.7632 74.0426 1.16399 C.3 0 **** 0
6277 C 38.7867 72.9059 0.681376 C.3 0 **** -0.053
6278 C 39.2492 72.2743 -0.646183 C.3 0 **** -0.053
6279 C 42.758 76.3652 3.54078 C.3 0 **** -0.053
6280 C 41.7768 75.1492 3.21588 C.3 0 **** 0
6281 C 39.2593 74.6596 2.54713 C.3 0 **** 0.02
6282 C 40.2944 75.6819 3.13577 C.3 0 **** 0
6283 C 39.9196 76.4589 4.42021 C.3 0 **** -0.106
6284 C 38.5319 76.078 4.85295 C.3 0 **** -0.106
6285 C 37.5698 76.174 3.6744 C.3 0 **** -0.086
6286 C 37.8938 75.3395 2.49018 C.2 0 **** 0.379
6287 O 37.0645 75.1806 1.61099 O.2 0 **** -0.419
6288 H 68.4515 82.2134 8.70406 H 0 **** 0.053
6289 H 67.812 80.579 8.84979 H 0 **** 0.053
6290 H 69.7279 82.0187 10.702 H 0 **** 0.053
6291 H 68.6442 80.6796 11.0427 H 0 **** 0.053
6292 H 71.4307 80.625 9.78676 H 0 **** 0.053
6293 H 71.1442 78.2215 9.29287 H 0 **** 0.053
6294 H 69.0293 78.8442 7.51239 H 0 **** 0.053
6295 H 70.7265 79.2227 7.23739 H 0 **** 0.053
6296 H 68.1687 78.5347 9.68287 H 0 **** 0.053
6297 H 68.5627 78.6976 11.9879 H 0 **** 0.053
6298 H 71.2831 77.443 11.5093 H 0 **** 0.053
6299 H 70.6843 77.9821 13.0817 H 0 **** 0.053
6300 H 72.1744 79.6747 11.7469 H 0 **** 0.053
6301 H 70.6824 80.3009 12.4392 H 0 **** 0.053
6302 H 67.3401 75.2726 11.9501 H 0 **** 0.053
6303 H 68.6543 74.7177 10.1801 H 0 **** 0.053
6304 H 68.9053 76.7214 8.21868 H 0 **** 0.053
6305 H 70.093 76.2051 9.42362 H 0 **** 0.053
6306 H 66.7773 78.1192 10.9663 H 0 **** 0.053
6307 H 63.9149 74.4841 6.61786 H 0 **** 0.053
6308 H 65.2041 75.6992 6.40855 H 0 **** 0.053
6309 H 66.2454 73.4108 6.34714 H 0 **** 0.053
6310 H 65.3598 72.9557 7.8118 H 0 **** 0.053
6311 H 67.9273 73.6495 8.07629 H 0 **** 0.1268
6312 H 65.3884 79.4326 12.1453 H 0 **** 0.053
6313 H 64.9305 76.2305 15.5361 H 0 **** 0.053
6314 H 66.365 77.2075 16.0175 H 0 **** 0.053
6315 H 66.9519 75.9627 13.9204 H 0 **** 0.1268
6316 H 64.1969 78.0289 17.3081 H 0 **** 0.053
6317 H 65.1219 79.5141 16.9778 H 0 **** 0.053
6318 H 62.7725 80.1785 17.4201 H 0 **** 0.053
6319 H 62.1798 78.9946 16.2356 H 0 **** 0.053
6320 H 65.0248 81.4206 12.7229 H 0 **** 0.053
6321 H 63.3821 81.0259 12.2175 H 0 **** 0.053
6322 H 64.293 83.1535 14.2013 H 0 **** 0.053
6323 H 61.4577 82.212 13.5264 H 0 **** 0.053
6324 H 61.793 83.7153 14.3917 H 0 **** 0.053
6325 H 61.3222 81.6751 15.8909 H 0 **** 0.053
6326 H 62.8201 82.5723 16.2499 H 0 **** 0.053
6327 H 62.1516 79.0901 13.1871 H 0 **** 0.053
6328 H 56.9484 79.0169 11.6414 H 0 **** 0.053
6329 H 54.7399 78.8645 10.8499 H 0 **** 0.053
6330 H 60.4757 74.9283 6.38183 H 0 **** 0.053
6331 H 49.9303 79.339 8.24363 H 0 **** 0.053
6332 H 51.652 80.0744 9.61143 H 0 **** 0.053
6333 H 51.2004 77.5391 11.2371 H 0 **** 0.053
6334 H 49.9282 79.4936 12.053 H 0 **** 0.053
6335 H 51.0536 80.8435 11.7719 H 0 **** 0.053
6336 H 49.5228 81.5277 9.79716 H 0 **** 0.053
6337 H 48.7659 81.7434 11.3817 H 0 **** 0.053
6338 H 47.4134 79.8203 11.1697 H 0 **** 0.053
6339 H 48.6055 77.9823 10.5925 H 0 **** 0.053
6340 H 47.804 78.5146 7.70848 H 0 **** 0.053
6341 H 47.7894 76.9633 8.58263 H 0 **** 0.053
6342 H 45.9413 77.9012 10.0234 H 0 **** 0.053
6343 H 45.4475 77.8597 8.33246 H 0 **** 0.053
6344 H 45.1611 80.123 9.8567 H 0 **** 0.053
6345 H 45.4382 80.2252 8.12417 H 0 **** 0.053
6346 H 47.5905 80.846 8.46408 H 0 **** 0.353
6347 H 58.6042 71.695 4.26379 H 0 **** 0.053
6348 H 60.606 73.0799 3.75592 H 0 **** 0.053
6349 H 58.8694 75.4802 3.10589 H 0 **** 0.053
6350 H 60.5355 75.1582 2.66462 H 0 **** 0.053
6351 H 59.4369 74.8801 0.565268 H 0 **** 0.053
6352 H 57.9538 74.2628 1.3052 H 0 **** 0.053
6353 H 60.5983 72.7081 1.21213 H 0 **** 0.053
6354 H 59.2697 72.4407 0.0641686 H 0 **** 0.053
6355 H 59.4793 70.841 2.19613 H 0 **** 0.053
6356 H 57.8698 71.4318 1.72727 H 0 **** 0.053
6357 H 54.9911 73.0765 2.77639 H 0 **** 0.053
6358 H 52.6788 72.9404 2.02466 H 0 **** 0.053
6359 H 49.3376 77.3221 7.06735 H 0 **** 0.053
6360 H 46.9929 76.7138 6.5038 H 0 **** 0.053
6361 H 45.9387 75.0757 5.28102 H 0 **** 0.053
6362 H 45.5563 77.306 3.19236 H 0 **** 0.053
6363 H 44.6086 77.2445 6.08789 H 0 **** 0.053
6364 H 43.8961 78.3322 4.87318 H 0 **** 0.053
6365 H 45.9935 79.1511 6.38182 H 0 **** 0.053
6366 H 45.7911 79.6935 4.70998 H 0 **** 0.053
6367 H 48.1589 78.7651 5.46076 H 0 **** 0.053
6368 H 47.5328 78.201 3.90771 H 0 **** 0.053
6369 H 64.538 83.5676 11.7235 H 0 **** 0.053
6370 H 62.566 84.1369 10.3652 H 0 **** 0.053
6371 H 61.4683 83.769 11.7171 H 0 **** 0.053
6372 H 62.3834 82.463 10.93 H 0 **** 0.053
6373 H 64.4451 85.4123 13.387 H 0 **** 0.053
6374 H 62.6708 85.4574 13.2625 H 0 **** 0.053
6375 H 63.6743 85.894 11.8584 H 0 **** 0.053
6376 H 53.2469 78.0258 12.0622 H 0 **** 0.41
6377 H 49.5556 72.0444 0.229178 H 0 **** 0.053
6378 H 47.8352 70.7658 -1.25244 H 0 **** 0.053
6379 H 45.4221 70.3163 -1.93012 H 0 **** 0.053
6380 H 43.0137 69.866 -2.68387 H 0 **** 0.053
6381 H 40.4232 70.2913 -2.31636 H 0 **** 0.053
6382 H 37.7266 73.2616 0.577558 H 0 **** 0.053
6383 H 38.5411 71.5094 -1.04145 H 0 **** 0.053
6384 H 42.3986 76.9229 4.47976 H 0 **** 0.053
6385 H 40.652 76.283 5.2277 H 0 **** 0.053
6386 H 39.9936 77.5035 4.1218 H 0 **** 0.053
6387 H 38.2013 76.7292 5.6602 H 0 **** 0.053
6388 H 38.548 75.0453 5.25663 H 0 **** 0.053
6389 H 37.5513 77.1867 3.26359 H 0 **** 0.053
6390 H 36.5516 75.8503 3.8789 H 0 **** 0.053
6391 C 1.37564 84.7883 1.83167 C.3 0 **** 0.054
6392 C 0.889309 83.4391 1.22823 C.3 0 **** -0.106
6393 C 0.332205 82.5 2.33392 C.3 0 **** -0.053
6394 C 1.23575 82.627 3.58403 C.3 0 **** -0.053
6395 C 1.27997 84.1091 4.06315 C.3 0 **** 0.054
6396 O 0.778565 85.0213 3.09665 O.3 0 **** -0.32
6397 C 2.66411 82.078 3.29531 C.3 0 **** -0.053
6398 C 2.6495 80.814 2.35341 C.3 0 **** 0.107
6399 C 1.29036 80.1269 2.40466 C.3 0 **** -0.106
6400 C 0.168124 81.0315 1.86896 C.3 0 **** -0.106
6401 O 3.63334 79.8261 2.67942 O.3 0 **** -0.32
6402 C 4.87403 80.4394 2.99257 C.3 0 **** 0.107
6403 C 4.74569 81.0326 4.42105 C.3 0 **** -0.053
6404 C 3.39721 81.7721 4.61682 C.3 0 **** -0.106
6405 C 5.8994 81.8959 4.86326 C.2 0 **** 0
6406 C 6.56911 82.7176 3.77081 C.3 0 **** 0
6407 C 6.63553 82.0615 2.3923 C.3 0 **** 0
6408 C 5.36224 81.386 1.89816 C.3 0 **** -0.053
6409 C 7.29281 82.9125 1.32391 C.3 0 **** 0
6410 C 8.67532 83.372 1.77391 C.3 0 **** 0
6411 C 8.53156 84.1172 3.15356 C.3 0 **** 0.16
6412 C 7.91363 83.2476 4.22614 C.3 0 **** 0
6413 C 7.91657 83.9029 5.63438 C.3 0 **** -0.106
6414 C 7.58927 82.7555 6.57795 C.3 0 **** -0.106
6415 C 6.37924 81.944 6.12873 C.2 0 **** -0.1268
6416 O 9.62087 84.9271 3.64861 O.3 0 **** -0.32
6417 C 10.7511 84.8832 2.80423 C.3 0 **** 0.16
6418 C 10.4873 85.0996 1.27697 C.3 0 **** 0
6419 C 9.3039 84.2885 0.691409 C.3 0 **** 0
6420 C 5.63995 80.7152 0.577953 C.2 0 **** 0
6421 C 5.92816 81.7134 -0.50774 C.3 0 **** -0.053
6422 C 7.30944 82.2891 -0.0826801 C.3 0 **** 0
6423 C 6.07263 81.1898 -1.91947 C.2 0 **** 0
6424 C 6.28275 79.8578 -2.08669 C.2 0 **** 0
6425 C 6.21017 78.8423 -0.955667 C.3 0 **** -0.106
6426 C 5.76835 79.4075 0.384247 C.2 0 **** -0.1268
6427 C 6.40555 79.2597 -3.46902 C.3 0 **** -0.106
6428 C 7.10501 80.2525 -4.386 C.3 0 **** -0.106
6429 C 6.46711 81.6207 -4.21848 C.2 0 **** 0
6430 C 5.96832 82.022 -3.00467 C.2 0 **** 0
6431 C 5.39209 83.4181 -2.86246 C.3 0 **** -0.106
6432 C 5.05333 84.0805 -4.19006 C.3 0 **** -0.053
6433 C 6.2627 83.9786 -5.1351 C.3 0 **** -0.106
6434 C 6.54915 82.5051 -5.44438 C.3 0 **** -0.106
6435 C 9.43414 83.5226 -0.631429 C.3 0 **** 0.147
6436 C 8.04104 83.1699 -1.13162 C.3 0 **** -0.053
6437 C 11.7459 85.1199 0.402496 C.3 0 **** 0
6438 C 11.5271 85.2941 -1.10561 C.3 0 **** 0.147
6439 S 10.3118 84.3479 -1.99144 S.3 0 **** -0.294
6440 C 12.7849 85.4353 -1.91761 C.3 0 **** -0.053
6441 C 13.6289 86.5732 -1.32791 C.3 0 **** 0
6442 C 13.9511 86.3378 0.197642 C.3 0 **** 0
6443 C 12.6374 86.2439 1.00055 C.3 0 **** 0
6444 C 14.794 87.499 0.704674 C.3 0 **** 0
6445 C 16.0796 87.5765 -0.0942885 C.3 0 **** 0
6446 C 15.8424 87.76 -1.65217 C.3 0 **** 0
6447 C 14.9406 86.583 -2.17574 C.3 0 **** -0.053
6448 C 17.2341 87.6935 -2.3414 C.3 0 **** 0
6449 C 17.9889 88.9382 -1.92877 C.3 0 **** 0.16
6450 C 18.1276 89.0784 -0.409856 C.3 0 **** 0
6451 C 17.1168 88.4742 0.521598 C.3 0 **** 0
6452 C 12.8346 86.1446 2.53677 C.3 0 **** 0
6453 C 11.5251 86.071 3.31581 C.3 0 **** -0.053
6454 C 14.9047 87.6856 2.23412 C.3 0 **** 0
6455 C 14.0644 86.8331 3.18799 C.3 0 **** 0
6456 C 16.9512 89.0649 1.92198 C.3 0 **** 0
6457 C 16.2632 88.0414 2.84464 C.3 0 **** 0
6458 C 19.3366 89.79 0.198806 C.3 0 **** 0
6459 C 19.0339 90.3468 1.62658 C.3 0 **** 0
6460 C 18.3333 89.3478 2.56578 C.3 0 **** 0
6461 O 19.1911 88.9925 -2.66571 O.3 0 **** -0.32
6462 C 18.7833 89.6487 -3.86538 C.3 0 **** 0.107
6463 C 17.5723 88.8998 -4.50956 C.3 0 **** -0.053
6464 C 17.4029 87.5231 -3.87044 C.3 0 **** 0.107
6465 C 17.7573 88.7781 -6.02928 C.3 0 **** -0.106
6466 C 18.3552 90.0803 -6.59286 C.3 0 **** -0.106
6467 C 19.8173 90.2423 -6.13642 C.3 0 **** 0.134
6468 C 20.0406 89.6752 -4.70868 C.3 0 **** -0.053
6469 C 21.168 90.4199 -3.95147 C.3 0 **** -0.106
6470 C 22.2636 90.8278 -4.92794 C.3 0 **** -0.106
6471 C 21.6931 91.764 -6.03662 C.3 0 **** 0.081
6472 N 20.2562 91.6178 -6.26104 N.3 0 **** -0.727
6473 C 13.9287 87.4691 4.59749 C.3 0 **** 0.16
6474 C 15.3193 87.7122 5.16312 C.3 0 **** 0.16
6475 C 16.0192 88.7017 4.27638 C.3 0 **** 0
6476 O 15.3434 88.1639 6.50028 O.3 0 **** -0.32
6477 C 14.5141 87.3314 7.30373 C.3 0 **** 0.107
6478 C 13.1168 87.3655 6.76528 C.3 0 **** 0.107
6479 O 13.1375 86.7174 5.50447 O.3 0 **** -0.32
6480 C 12.5616 88.8095 6.65958 C.3 0 **** -0.106
6481 C 13.2067 89.7561 7.71236 C.3 0 **** -0.106
6482 C 13.5652 88.9657 8.98662 C.3 0 **** -0.106
6483 C 14.625 87.8619 8.71077 C.3 0 **** -0.106
6484 C 18.1556 89.9997 4.00886 C.3 0 **** 0
6485 C 17.4138 88.9777 4.92869 C.3 0 **** -0.053
6486 C 20.3659 90.7302 2.29219 C.3 0 **** 0
6487 C 20.1765 91.2662 3.72461 C.3 0 **** 0.16
6488 C 19.4872 90.3444 4.64998 C.3 0 **** -0.053
6489 C 21.0158 91.821 1.35266 C.3 0 **** 0
6490 C 21.2555 91.2317 -0.0977749 C.3 0 **** 0
6491 C 19.8667 90.9478 -0.690989 C.3 0 **** -0.053
6492 O 21.3255 91.7255 4.35532 O.3 0 **** -0.32
6493 C 22.0485 92.5622 3.46036 C.3 0 **** 0.16
6494 C 22.3785 92.0005 2.01413 C.3 0 **** 0
6495 C 22.0664 92.1461 -1.05822 C.3 0 **** -0.053
6496 C 23.3264 92.6339 -0.34599 C.3 0 **** -0.053
6497 C 23.1058 93.0452 1.1583 C.3 0 **** 0
6498 C 23.8134 93.9005 -0.962606 C.3 0 **** -0.053
6499 C 23.6716 93.8562 -2.46104 C.3 0 **** -0.106
6500 C 22.1564 93.8992 -2.81126 C.3 0 **** -0.106
6501 C 21.2883 93.3312 -1.66963 C.3 0 **** -0.106
6502 C 24.4423 93.3023 1.81339 C.3 0 **** 0
6503 C 24.3259 93.684 3.31906 C.3 0 **** 0
6504 C 23.3258 92.9088 4.17419 C.3 0 **** 0
6505 C 25.2622 93.9615 -0.485616 C.3 0 **** 0
6506 C 25.2834 94.2787 1.0209 C.3 0 **** 0
6507 C 4.52209 85.5243 -3.99542 C.3 0 **** -0.053
6508 C 5.62211 86.525 -3.61186 C.3 0 **** -0.159
6509 C 3.77306 86.015 -5.23991 C.3 0 **** -0.159
6510 O 16.3747 86.788 -4.52029 O.3 0 **** -0.57
6511 C 23.4285 92.8529 5.72508 C.3 0 **** -0.053
6512 C 24.4099 93.8398 6.36638 C.3 0 **** -0.053
6513 C 25.7068 93.9116 5.53842 C.3 0 **** 0
6514 C 25.4842 94.3356 4.05267 C.3 0 **** 0
6515 C 26.6627 94.6442 3.14512 C.3 0 **** 0
6516 C 27.9507 95.0298 3.81227 C.3 0 **** 0
6517 C 27.9401 95.1641 5.35585 C.3 0 **** 0
6518 C 26.6729 94.8983 6.20434 C.3 0 **** -0.053
6519 C 29.1592 95.7577 6.04817 C.3 0 **** -0.053
6520 C 30.2463 96.4162 5.17027 C.3 0 **** -0.053
6521 C 30.294 96.0291 3.65951 C.3 0 **** 0
6522 C 28.8968 95.9401 2.99119 C.3 0 **** 0
6523 C 28.9876 95.4435 1.49554 C.3 0 **** 0
6524 C 27.5496 95.3679 0.856146 C.3 0 **** 0
6525 C 26.6676 94.372 1.63673 C.3 0 **** 0
6526 C 29.899 96.4241 0.690801 C.3 0 **** 0
6527 C 31.3148 96.4692 1.37738 C.3 0 **** -0.053
6528 C 31.23 96.9383 2.84276 C.3 0 **** -0.053
6529 C 26.1541 94.9518 -1.26244 C.3 0 **** -0.053
6530 C 27.6154 94.8357 -0.631649 C.3 0 **** 0
6531 C 30.0277 95.9178 -0.817507 C.3 0 **** 0.02
6532 C 28.62 95.7083 -1.47877 C.3 0 **** 0
6533 C 28.5555 95.3228 -2.97572 C.3 0 **** -0.106
6534 C 29.9467 95.2584 -3.54022 C.3 0 **** -0.106
6535 C 30.7188 96.5222 -3.17875 C.3 0 **** -0.086
6536 C 30.8568 96.8171 -1.73048 C.2 0 **** 0.379
6537 O 31.6462 97.6659 -1.35262 O.2 0 **** -0.419
6538 H 1.09115 85.6317 1.18793 H 0 **** 0.053
6539 H 2.47416 84.8089 1.90343 H 0 **** 0.053
6540 H 0.103904 83.5927 0.462298 H 0 **** 0.053
6541 H 1.72018 82.9455 0.690706 H 0 **** 0.053
6542 H -0.658739 82.8956 2.60981 H 0 **** 0.053
6543 H 0.80751 81.9895 4.37951 H 0 **** 0.053
6544 H 2.30038 84.3983 4.3694 H 0 **** 0.053
6545 H 0.644991 84.2376 4.94668 H 0 **** 0.053
6546 H 3.21226 82.8977 2.79956 H 0 **** 0.053
6547 H 2.80454 81.1365 1.3074 H 0 **** 0.053
6548 H 1.09777 79.8442 3.45691 H 0 **** 0.053
6549 H 1.34884 79.1846 1.8372 H 0 **** 0.053
6550 H -0.80333 80.6359 2.19589 H 0 **** 0.053
6551 H 0.166821 80.9887 0.770552 H 0 **** 0.053
6552 H 5.5993 79.6279 3.07958 H 0 **** 0.053
6553 H 4.73907 80.1805 5.11003 H 0 **** 0.053
6554 H 3.49141 82.7017 5.21992 H 0 **** 0.053
6555 H 2.73915 81.1009 5.1964 H 0 **** 0.053
6556 H 4.62948 82.1803 1.68937 H 0 **** 0.053
6557 H 8.91591 84.3289 5.85189 H 0 **** 0.053
6558 H 7.1866 84.7369 5.69297 H 0 **** 0.053
6559 H 7.45392 83.1188 7.59957 H 0 **** 0.053
6560 H 8.45699 82.0701 6.58435 H 0 **** 0.053
6561 H 5.89523 81.3889 6.92622 H 0 **** 0.1268
6562 H 5.16443 82.5271 -0.464016 H 0 **** 0.053
6563 H 7.20878 78.3263 -0.831838 H 0 **** 0.053
6564 H 5.47972 78.0335 -1.24272 H 0 **** 0.053
6565 H 5.59457 78.6855 1.17677 H 0 **** 0.1268
6566 H 6.93636 78.2832 -3.44635 H 0 **** 0.053
6567 H 5.38247 79.0609 -3.83559 H 0 **** 0.053
6568 H 7.06975 79.9159 -5.44109 H 0 **** 0.053
6569 H 8.17504 80.3263 -4.11231 H 0 **** 0.053
6570 H 4.46967 83.3564 -2.26606 H 0 **** 0.053
6571 H 6.08142 84.0709 -2.2927 H 0 **** 0.053
6572 H 4.22703 83.4941 -4.64222 H 0 **** 0.053
6573 H 7.14286 84.4315 -4.65128 H 0 **** 0.053
6574 H 6.09659 84.5295 -6.07184 H 0 **** 0.053
6575 H 7.54742 82.4075 -5.93133 H 0 **** 0.053
6576 H 5.80354 82.1388 -6.18553 H 0 **** 0.053
6577 H 8.13164 82.6644 -2.15401 H 0 **** 0.053
6578 H 12.6388 85.5595 -3.03247 H 0 **** 0.053
6579 H 14.6128 86.82 -3.23779 H 0 **** 0.053
6580 H 11.6492 85.9379 4.43037 H 0 **** 0.053
6581 H 18.4957 90.6838 -3.61507 H 0 **** 0.053
6582 H 16.648 89.4933 -4.35287 H 0 **** 0.053
6583 H 18.3367 86.9878 -3.97199 H 0 **** 0.053
6584 H 18.4426 87.9316 -6.25288 H 0 **** 0.053
6585 H 16.7853 88.5266 -6.51217 H 0 **** 0.053
6586 H 17.7428 90.9148 -6.21307 H 0 **** 0.053
6587 H 18.2944 90.1157 -7.69199 H 0 **** 0.053
6588 H 20.436 89.6391 -6.8204 H 0 **** 0.053
6589 H 20.341 88.6113 -4.80372 H 0 **** 0.053
6590 H 20.7423 91.341 -3.52667 H 0 **** 0.053
6591 H 21.5494 89.8081 -3.11505 H 0 **** 0.053
6592 H 22.6724 89.9027 -5.37356 H 0 **** 0.053
6593 H 23.1082 91.3094 -4.40609 H 0 **** 0.053
6594 H 22.2128 91.5632 -6.98719 H 0 **** 0.053
6595 H 21.912 92.8187 -5.79481 H 0 **** 0.053
6596 H 19.7444 92.1807 -5.61112 H 0 **** 0.353
6597 H 14.8922 86.3127 7.2207 H 0 **** 0.053
6598 H 12.4612 86.7961 7.41909 H 0 **** 0.053
6599 H 12.731 89.2471 5.65299 H 0 **** 0.053
6600 H 11.4578 88.8211 6.78064 H 0 **** 0.053
6601 H 12.532 90.6047 7.94523 H 0 **** 0.053
6602 H 14.1275 90.2089 7.2926 H 0 **** 0.053
6603 H 12.6411 88.4837 9.3502 H 0 **** 0.053
6604 H 13.9139 89.6427 9.78772 H 0 **** 0.053
6605 H 14.5604 87.0672 9.47698 H 0 **** 0.053
6606 H 15.6426 88.3061 8.80381 H 0 **** 0.053
6607 H 17.2906 89.45 5.96356 H 0 **** 0.053
6608 H 19.3463 90.7252 5.68237 H 0 **** 0.053
6609 H 20.0246 90.6126 -1.75491 H 0 **** 0.053
6610 H 22.3495 91.4884 -1.86874 H 0 **** 0.053
6611 H 24.0831 91.8265 -0.395223 H 0 **** 0.053
6612 H 23.2641 94.789 -0.584571 H 0 **** 0.053
6613 H 24.1301 92.9191 -2.82969 H 0 **** 0.053
6614 H 24.1825 94.6904 -2.98935 H 0 **** 0.053
6615 H 21.9694 93.3133 -3.73343 H 0 **** 0.053
6616 H 21.8564 94.9389 -3.04426 H 0 **** 0.053
6617 H 20.2958 93.0382 -2.05722 H 0 **** 0.053
6618 H 21.112 94.0891 -0.895185 H 0 **** 0.053
6619 H 3.78992 85.4943 -3.16611 H 0 **** 0.053
6620 H 5.18945 87.5087 -3.36914 H 0 **** 0.053
6621 H 6.33016 86.6667 -4.44471 H 0 **** 0.053
6622 H 6.20189 86.1942 -2.73526 H 0 **** 0.053
6623 H 2.94201 85.3392 -5.49771 H 0 **** 0.053
6624 H 4.44601 86.0672 -6.11017 H 0 **** 0.053
6625 H 3.35042 87.0187 -5.07892 H 0 **** 0.053
6626 H 16.3316 85.9489 -4.06546 H 0 **** 0.41
6627 H 22.4774 92.6231 6.28328 H 0 **** 0.053
6628 H 24.6004 93.5893 7.44758 H 0 **** 0.053
6629 H 26.9028 94.6647 7.28048 H 0 **** 0.053
6630 H 29.2012 95.7938 7.16663 H 0 **** 0.053
6631 H 31.2179 96.6478 5.67386 H 0 **** 0.053
6632 H 32.0461 97.1135 0.81932 H 0 **** 0.053
6633 H 32.2262 97.0395 3.3323 H 0 **** 0.053
6634 H 26.1857 94.6932 -2.38231 H 0 **** 0.053
6635 H 28.0194 94.3691 -3.12523 H 0 **** 0.053
6636 H 27.9587 96.1167 -3.42208 H 0 **** 0.053
6637 H 29.9049 95.1417 -4.6217 H 0 **** 0.053
6638 H 30.4608 94.362 -3.13781 H 0 **** 0.053
6639 H 30.2169 97.4132 -3.56456 H 0 **** 0.053
6640 H 31.7612 96.534 -3.48923 H 0 **** 0.053
6641 C 76.9776 -1.91791 64.8015 C.3 0 **** 0.054
6642 C 76.4021 -1.69807 63.3726 C.3 0 **** -0.106
6643 C 77.5419 -1.55437 62.3259 C.3 0 **** -0.053
6644 C 78.6781 -0.711531 62.9536 C.3 0 **** -0.053
6645 C 79.1864 -1.38895 64.2618 C.3 0 **** 0.054
6646 O 78.3103 -2.39871 64.742 O.3 0 **** -0.32
6647 C 78.2071 0.749735 63.2138 C.3 0 **** -0.053
6648 C 77.2415 1.28566 62.0886 C.3 0 **** 0.107
6649 C 77.4367 0.497966 60.7988 C.3 0 **** -0.106
6650 C 77.0622 -0.983849 60.9677 C.3 0 **** -0.106
6651 O 77.4226 2.66948 61.7686 O.3 0 **** -0.32
6652 C 77.6013 3.43697 62.9488 C.3 0 **** 0.107
6653 C 79.0495 3.18488 63.4463 C.3 0 **** -0.053
6654 C 79.4235 1.68156 63.3863 C.3 0 **** -0.106
6655 C 79.3728 3.76393 64.8 C.2 0 **** 0
6656 C 78.2298 3.77804 65.8052 C.3 0 **** 0
6657 C 76.837 4.01607 65.2239 C.3 0 **** 0
6658 C 76.4817 3.23167 63.967 C.3 0 **** -0.053
6659 C 75.7197 4.00771 66.2484 C.3 0 **** 0
6660 C 76.0131 4.99135 67.3759 C.3 0 **** 0
6661 C 77.4188 4.64151 67.9933 C.3 0 **** 0.16
6662 C 78.5348 4.6936 66.9734 C.3 0 **** 0
6663 C 79.9489 4.51775 67.5914 C.3 0 **** -0.106
6664 C 80.895 4.94551 66.4797 C.3 0 **** -0.106
6665 C 80.5727 4.29097 65.1409 C.2 0 **** -0.1268
6666 O 77.8008 5.1996 69.2701 O.3 0 **** -0.32
6667 C 76.8268 6.08211 69.7847 C.3 0 **** 0.16
6668 C 75.3481 5.57038 69.7712 C.3 0 **** 0
6669 C 74.8871 4.92258 68.4409 C.3 0 **** 0
6670 C 75.1213 3.664 63.4863 C.2 0 **** 0
6671 C 74.034 3.26424 64.4435 C.3 0 **** -0.053
6672 C 74.3057 4.18364 65.6682 C.3 0 **** 0
6673 C 72.6021 3.49652 64.0136 C.2 0 **** 0
6674 C 72.3779 4.34855 62.9795 C.2 0 **** 0
6675 C 73.4859 4.94754 62.1269 C.3 0 **** -0.106
6676 C 74.8813 4.4334 62.4313 C.2 0 **** -0.1268
6677 C 70.976 4.60299 62.4746 C.3 0 **** -0.106
6678 C 70.0071 4.57322 63.648 C.3 0 **** -0.106
6679 C 70.2841 3.34146 64.4926 C.2 0 **** 0
6680 C 71.5586 2.85035 64.6259 C.2 0 **** 0
6681 C 71.8041 1.65344 65.5254 C.3 0 **** -0.106
6682 C 70.5439 0.869714 65.862 C.3 0 **** -0.053
6683 C 69.4591 1.83792 66.3639 C.3 0 **** -0.106
6684 C 69.0802 2.81039 65.2415 C.3 0 **** -0.106
6685 C 73.539 5.27858 67.801 C.3 0 **** 0.147
6686 C 73.1997 4.2247 66.7573 C.3 0 **** -0.053
6687 C 74.3307 6.52499 70.4058 C.3 0 **** 0
6688 C 72.8642 6.07616 70.3798 C.3 0 **** 0.147
6689 S 72.1056 5.43488 68.9065 S.3 0 **** -0.294
6690 C 71.9115 6.97314 71.1212 C.3 0 **** -0.053
6691 C 72.4255 7.16437 72.5544 C.3 0 **** 0
6692 C 73.8952 7.7352 72.5817 C.3 0 **** 0
6693 C 74.8464 6.7643 71.8524 C.3 0 **** 0
6694 C 74.3276 7.90409 74.0308 C.3 0 **** 0
6695 C 73.3831 8.85992 74.7317 C.3 0 **** 0
6696 C 71.8699 8.38461 74.7025 C.3 0 **** 0
6697 C 71.4278 8.17216 73.2087 C.3 0 **** -0.053
6698 C 71.018 9.51785 75.3398 C.3 0 **** 0
6699 C 71.3694 9.55768 76.8109 C.3 0 **** 0.16
6700 C 72.8641 9.77684 77.0639 C.3 0 **** 0
6701 C 73.8937 9.34285 76.061 C.3 0 **** 0
6702 C 76.345 7.1599 71.9317 C.3 0 **** 0
6703 C 77.2726 6.17912 71.2211 C.3 0 **** -0.053
6704 C 75.8371 8.07688 74.3093 C.3 0 **** 0
6705 C 76.8623 7.91825 73.1839 C.3 0 **** 0
6706 C 75.3184 9.05689 76.536 C.3 0 **** 0
6707 C 76.2901 9.11244 75.3423 C.3 0 **** 0
6708 C 73.3421 10.5009 78.323 C.3 0 **** 0
6709 C 74.8093 10.1201 78.6991 C.3 0 **** 0
6710 C 75.7998 10.1537 77.5206 C.3 0 **** 0
6711 O 70.496 10.4623 77.4511 O.3 0 **** -0.32
6712 C 69.3707 9.63796 77.7517 C.3 0 **** 0.107
6713 C 68.8567 8.9277 76.4581 C.3 0 **** -0.053
6714 C 69.4759 9.57312 75.2201 C.3 0 **** 0.107
6715 C 67.3231 8.97247 76.3889 C.3 0 **** -0.106
6716 C 66.7258 8.73716 77.7884 C.3 0 **** -0.106
6717 C 67.0086 9.94337 78.7035 C.3 0 **** 0.134
6718 C 68.3844 10.5916 78.3925 C.3 0 **** -0.053
6719 C 69.0206 11.2462 79.6437 C.3 0 **** -0.106
6720 C 67.9311 11.8494 80.521 C.3 0 **** -0.106
6721 C 66.9228 10.7523 80.98 C.3 0 **** 0.081
6722 N 66.8677 9.58589 80.1007 N.3 0 **** -0.727
6723 C 78.2938 7.63528 73.7135 C.3 0 **** 0.16
6724 C 78.6955 8.75139 74.665 C.3 0 **** 0.16
6725 C 77.7572 8.72771 75.8373 C.3 0 **** 0
6726 O 80.0314 8.69105 75.1173 O.3 0 **** -0.32
6727 C 80.9064 8.51411 74.0085 C.3 0 **** 0.107
6728 C 80.5396 7.25141 73.2912 C.3 0 **** 0.107
6729 O 79.2691 7.4604 72.6977 O.3 0 **** -0.32
6730 C 80.5379 6.0189 74.2322 C.3 0 **** -0.106
6731 C 81.5301 6.19449 75.4177 C.3 0 **** -0.106
6732 C 82.7318 7.05541 74.9799 C.3 0 **** -0.106
6733 C 82.3033 8.49446 74.5758 C.3 0 **** -0.106
6734 C 77.2701 9.83054 78.0432 C.3 0 **** 0
6735 C 78.2451 9.83988 76.8227 C.3 0 **** -0.053
6736 C 75.3201 11.1258 79.744 C.3 0 **** 0
6737 C 76.7791 10.8513 80.1609 C.3 0 **** 0.16
6738 C 77.7566 10.8544 79.0525 C.3 0 **** -0.053
6739 C 74.3386 11.0006 80.975 C.3 0 **** 0
6740 C 72.8556 11.342 80.5379 C.3 0 **** 0
6741 C 72.4254 10.2457 79.551 C.3 0 **** -0.053
6742 O 77.2811 11.657 81.176 O.3 0 **** -0.32
6743 C 76.326 11.7326 82.2282 C.3 0 **** 0.16
6744 C 74.8366 12.138 81.8612 C.3 0 **** 0
6745 C 71.8291 11.4432 81.7007 C.3 0 **** -0.053
6746 C 72.3981 12.3384 82.7994 C.3 0 **** -0.053
6747 C 73.9278 12.1113 83.0966 C.3 0 **** 0
6748 C 71.7606 12.0217 84.1089 C.3 0 **** -0.053
6749 C 70.2891 11.752 83.9371 C.3 0 **** -0.106
6750 C 70.1234 10.4066 83.1738 C.3 0 **** -0.106
6751 C 71.3455 10.0982 82.2844 C.3 0 **** -0.106
6752 C 74.4246 13.1845 84.0361 C.3 0 **** 0
6753 C 75.9433 13.0665 84.3611 C.3 0 **** 0
6754 C 76.8929 12.7103 83.2203 C.3 0 **** 0
6755 C 72.0626 13.2715 84.9316 C.3 0 **** 0
6756 C 73.5633 13.2978 85.2745 C.3 0 **** 0
6757 C 70.8375 -0.307665 66.8274 C.3 0 **** -0.053
6758 C 71.1126 0.147828 68.268 C.3 0 **** -0.159
6759 C 69.7042 -1.34011 66.8078 C.3 0 **** -0.159
6760 O 68.9349 9.00972 74.0329 O.3 0 **** -0.57
6761 C 78.4163 13.0149 83.2824 C.3 0 **** -0.053
6762 C 78.9604 13.4045 84.6603 C.3 0 **** -0.053
6763 C 77.9867 14.3664 85.3644 C.3 0 **** 0
6764 C 76.5503 13.7869 85.5507 C.3 0 **** 0
6765 C 75.5169 14.5225 86.3854 C.3 0 **** 0
6766 C 76.0354 15.4848 87.4132 C.3 0 **** 0
6767 C 77.5722 15.5915 87.5785 C.3 0 **** 0
6768 C 78.5577 14.7485 86.7338 C.3 0 **** -0.053
6769 C 78.129 16.3852 88.7524 C.3 0 **** -0.053
6770 C 77.1442 16.8693 89.8392 C.3 0 **** -0.053
6771 C 75.629 16.9348 89.4741 C.3 0 **** 0
6772 C 75.1303 15.721 88.647 C.3 0 **** 0
6773 C 73.6224 15.8837 88.2092 C.3 0 **** 0
6774 C 73.1576 14.6317 87.3734 C.3 0 **** 0
6775 C 74.0118 14.4923 86.0967 C.3 0 **** 0
6776 C 72.7402 16.0529 89.487 C.3 0 **** 0
6777 C 73.2539 17.3071 90.2877 C.3 0 **** -0.053
6778 C 74.7304 17.1605 90.7034 C.3 0 **** -0.053
6779 C 71.2106 13.4224 86.2088 C.3 0 **** -0.053
6780 C 71.6594 14.7927 86.8928 C.3 0 **** 0
6781 C 71.2149 16.2514 89.0605 C.3 0 **** 0.02
6782 C 70.7211 15.0922 88.1249 C.3 0 **** 0
6783 C 69.2332 15.0654 87.7019 C.3 0 **** -0.106
6784 C 68.5053 16.2117 88.3457 C.3 0 **** -0.106
6785 C 68.8043 16.2505 89.84 C.3 0 **** -0.086
6786 C 70.2329 16.3809 90.2218 C.2 0 **** 0.379
6787 O 70.5354 16.6506 91.3717 O.2 0 **** -0.419
6788 H 76.3942 -2.67115 65.3483 H 0 **** 0.053
6789 H 76.9182 -0.990348 65.3918 H 0 **** 0.053
6790 H 75.7395 -2.53105 63.0656 H 0 **** 0.053
6791 H 75.7568 -0.800102 63.3604 H 0 **** 0.053
6792 H 77.944 -2.56715 62.1611 H 0 **** 0.053
6793 H 79.5025 -0.651242 62.2193 H 0 **** 0.053
6794 H 79.376 -0.640013 65.0503 H 0 **** 0.053
6795 H 80.1423 -1.89153 64.0778 H 0 **** 0.053
6796 H 77.6707 0.730659 64.1783 H 0 **** 0.053
6797 H 76.1931 1.12898 62.4025 H 0 **** 0.053
6798 H 78.4968 0.603046 60.4999 H 0 **** 0.053
6799 H 76.8423 0.971716 60.0016 H 0 **** 0.053
6800 H 77.4923 -1.56316 60.1392 H 0 **** 0.053
6801 H 75.971 -1.0893 60.8864 H 0 **** 0.053
6802 H 77.5799 4.48275 62.6355 H 0 **** 0.053
6803 H 79.7122 3.70145 62.743 H 0 **** 0.053
6804 H 80.0345 1.34771 64.2534 H 0 **** 0.053
6805 H 80.0601 1.53994 62.4952 H 0 **** 0.053
6806 H 76.382 2.17452 64.2567 H 0 **** 0.053
6807 H 80.0564 5.16751 68.4823 H 0 **** 0.053
6808 H 80.1154 3.47313 67.9274 H 0 **** 0.053
6809 H 81.9345 4.7598 66.761 H 0 **** 0.053
6810 H 80.7803 6.03696 66.3447 H 0 **** 0.053
6811 H 81.4078 4.26156 64.4479 H 0 **** 0.1268
6812 H 74.189 2.19966 64.7439 H 0 **** 0.053
6813 H 73.4744 6.07517 62.2035 H 0 **** 0.053
6814 H 73.279 4.71123 61.0488 H 0 **** 0.053
6815 H 75.6683 4.75093 61.7535 H 0 **** 0.1268
6816 H 70.9098 5.56204 61.9166 H 0 **** 0.053
6817 H 70.7296 3.79761 61.7596 H 0 **** 0.053
6818 H 68.9554 4.59687 63.2997 H 0 **** 0.053
6819 H 70.1527 5.47223 64.2772 H 0 **** 0.053
6820 H 72.5046 0.973461 65.0182 H 0 **** 0.053
6821 H 72.3042 1.96382 66.4632 H 0 **** 0.053
6822 H 70.1787 0.422832 64.9143 H 0 **** 0.053
6823 H 69.846 2.40347 67.2267 H 0 **** 0.053
6824 H 68.5633 1.30318 66.7105 H 0 **** 0.053
6825 H 68.4754 3.65021 65.6563 H 0 **** 0.053
6826 H 68.4241 2.28404 64.5123 H 0 **** 0.053
6827 H 72.1613 4.44628 66.3312 H 0 **** 0.053
6828 H 70.8253 6.65677 71.1059 H 0 **** 0.053
6829 H 70.4188 7.64931 73.1981 H 0 **** 0.053
6830 H 78.3606 6.48185 71.2168 H 0 **** 0.053
6831 H 69.68 8.88549 78.4966 H 0 **** 0.053
6832 H 69.1377 7.8548 76.4919 H 0 **** 0.053
6833 H 69.25 10.6301 75.2433 H 0 **** 0.053
6834 H 66.9978 9.96679 76.0123 H 0 **** 0.053
6835 H 66.9533 8.22461 75.6504 H 0 **** 0.053
6836 H 67.1972 7.82882 78.1987 H 0 **** 0.053
6837 H 65.643 8.54065 77.7428 H 0 **** 0.053
6838 H 66.2404 10.7019 78.4816 H 0 **** 0.053
6839 H 68.227 11.3877 77.6359 H 0 **** 0.053
6840 H 69.5166 10.4562 80.2267 H 0 **** 0.053
6841 H 69.7895 11.9834 79.3527 H 0 **** 0.053
6842 H 67.4164 12.6249 79.925 H 0 **** 0.053
6843 H 68.3607 12.3744 81.3914 H 0 **** 0.053
6844 H 65.9122 11.1871 81.0397 H 0 **** 0.053
6845 H 67.1637 10.4174 82.004 H 0 **** 0.053
6846 H 67.5882 8.93496 80.3424 H 0 **** 0.353
6847 H 80.7527 9.35394 73.3313 H 0 **** 0.053
6848 H 81.2521 7.0675 72.4912 H 0 **** 0.053
6849 H 79.5298 5.81906 74.6533 H 0 **** 0.053
6850 H 80.79 5.09232 73.6745 H 0 **** 0.053
6851 H 81.8634 5.20908 75.8018 H 0 **** 0.053
6852 H 81.0151 6.69036 76.265 H 0 **** 0.053
6853 H 83.1905 6.56541 74.1036 H 0 **** 0.053
6854 H 83.5027 7.09106 75.7712 H 0 **** 0.053
6855 H 83.0511 8.94093 73.8944 H 0 **** 0.053
6856 H 82.2855 9.13589 75.4867 H 0 **** 0.053
6857 H 79.2991 9.60968 77.2038 H 0 **** 0.053
6858 H 78.8076 10.6547 79.3479 H 0 **** 0.053
6859 H 71.342 10.4312 79.3037 H 0 **** 0.053
6860 H 70.9741 11.9313 81.253 H 0 **** 0.053
6861 H 72.2385 13.3929 82.5004 H 0 **** 0.053
6862 H 72.2241 11.1385 84.598 H 0 **** 0.053
6863 H 69.8446 12.5846 83.3597 H 0 **** 0.053
6864 H 69.7252 11.6903 84.8932 H 0 **** 0.053
6865 H 69.2155 10.4465 82.5392 H 0 **** 0.053
6866 H 69.9546 9.58552 83.8967 H 0 **** 0.053
6867 H 71.0718 9.36551 81.5038 H 0 **** 0.053
6868 H 72.1547 9.64441 82.8714 H 0 **** 0.053
6869 H 71.7472 -0.816441 66.4554 H 0 **** 0.053
6870 H 71.4304 -0.701667 68.8935 H 0 **** 0.053
6871 H 70.2052 0.577759 68.7227 H 0 **** 0.053
6872 H 71.905 0.911497 68.3215 H 0 **** 0.053
6873 H 69.5303 -1.72227 65.7893 H 0 **** 0.053
6874 H 68.7615 -0.897809 67.1663 H 0 **** 0.053
6875 H 69.9402 -2.20094 67.4522 H 0 **** 0.053
6876 H 69.3699 9.46196 73.3124 H 0 **** 0.41
6877 H 79.0775 12.3899 82.6183 H 0 **** 0.053
6878 H 80.004 13.8194 84.59 H 0 **** 0.053
6879 H 79.5907 15.19 86.6951 H 0 **** 0.053
6880 H 79.2342 16.5374 88.8469 H 0 **** 0.053
6881 H 77.5344 17.6271 90.5633 H 0 **** 0.053
6882 H 72.6291 17.5274 91.1946 H 0 **** 0.053
6883 H 75.1 18.0078 91.326 H 0 **** 0.053
6884 H 70.0887 13.4548 85.959 H 0 **** 0.053
6885 H 69.1244 15.09 86.6033 H 0 **** 0.053
6886 H 68.8817 14.0963 88.0524 H 0 **** 0.053
6887 H 67.4339 16.1125 88.1808 H 0 **** 0.053
6888 H 68.8205 17.159 87.863 H 0 **** 0.053
6889 H 68.5043 15.3182 90.3252 H 0 **** 0.053
6890 H 68.3721 17.0911 90.3782 H 0 **** 0.053
6891 C 20.7463 33.3735 38.1505 C.3 0 **** 0.054
6892 C 19.4664 34.172 38.5316 C.3 0 **** -0.106
6893 C 18.286 33.2151 38.8572 C.3 0 **** -0.053
6894 C 18.3193 32.0383 37.8526 C.3 0 **** -0.053
6895 C 19.6904 31.3025 37.9367 C.3 0 **** 0.054
6896 O 20.6774 32.0441 38.6392 O.3 0 **** -0.32
6897 C 18.0259 32.5343 36.4059 C.3 0 **** -0.053
6898 C 16.9506 33.6863 36.3658 C.3 0 **** 0.107
6899 C 16.0874 33.6536 37.621 C.3 0 **** -0.106
6900 C 16.9097 33.9251 38.8917 C.3 0 **** -0.106
6901 O 16.0639 33.6246 35.2432 O.3 0 **** -0.32
6902 C 16.7772 33.3042 34.059 C.3 0 **** 0.107
6903 C 17.0955 31.786 34.1108 C.3 0 **** -0.053
6904 C 17.6015 31.3528 35.5108 C.3 0 **** -0.106
6905 C 18.0189 31.2868 33.0291 C.2 0 **** 0
6906 C 19.0976 32.261 32.5768 C.3 0 **** 0
6907 C 18.7009 33.7368 32.5737 C.3 0 **** 0
6908 C 17.9535 34.2432 33.8011 C.3 0 **** -0.053
6909 C 19.8024 34.6811 32.1346 C.3 0 **** 0
6910 C 20.3616 34.2656 30.7783 C.3 0 **** 0
6911 C 20.835 32.7666 30.8691 C.3 0 **** 0.16
6912 C 19.7196 31.8249 31.2658 C.3 0 **** 0
6913 C 20.1195 30.3255 31.1974 C.3 0 **** -0.106
6914 C 18.7945 29.5836 31.2878 C.3 0 **** -0.106
6915 C 17.9152 30.0758 32.432 C.2 0 **** -0.1268
6916 O 21.6872 32.22 29.8382 O.3 0 **** -0.32
6917 C 21.9419 33.1455 28.8031 C.3 0 **** 0.16
6918 C 22.3773 34.5821 29.2449 C.3 0 **** 0
6919 C 21.5254 35.2097 30.3769 C.3 0 **** 0
6920 C 17.5612 35.6812 33.5815 C.2 0 **** 0
6921 C 18.7594 36.5865 33.5264 C.3 0 **** -0.053
6922 C 19.4358 36.1745 32.1874 C.3 0 **** 0
6923 C 18.5084 38.0769 33.4652 C.2 0 **** 0
6924 C 17.2652 38.4998 33.116 C.2 0 **** 0
6925 C 16.0716 37.5703 32.9515 C.3 0 **** -0.106
6926 C 16.3352 36.1193 33.3186 C.2 0 **** -0.1268
6927 C 16.9334 39.9732 33.0643 C.3 0 **** -0.106
6928 C 18.1533 40.7467 32.5852 C.3 0 **** -0.106
6929 C 19.3738 40.283 33.3612 C.2 0 **** 0
6930 C 19.4913 38.9808 33.7779 C.2 0 **** 0
6931 C 20.7518 38.5417 34.4988 C.3 0 **** -0.106
6932 C 21.5787 39.6955 35.0476 C.3 0 **** -0.053
6933 C 21.8038 40.736 33.9374 C.3 0 **** -0.106
6934 C 20.457 41.33 33.5104 C.3 0 **** -0.106
6935 C 21.0209 36.6559 30.2919 C.3 0 **** 0.147
6936 C 20.5732 37.1001 31.6767 C.3 0 **** -0.053
6937 C 22.7168 35.5351 28.0938 C.3 0 **** 0
6938 C 23.1143 36.964 28.4844 C.3 0 **** 0.147
6939 S 22.1764 37.9083 29.6614 S.3 0 **** -0.294
6940 C 23.5598 37.8337 27.3415 C.3 0 **** -0.053
6941 C 24.6843 37.1156 26.5834 C.3 0 **** 0
6942 C 24.2384 35.6887 26.0816 C.3 0 **** 0
6943 C 23.8322 34.8148 27.286 C.3 0 **** 0
6944 C 25.3995 35.0471 25.3358 C.3 0 **** 0
6945 C 25.7852 35.9179 24.1568 C.3 0 **** 0
6946 C 26.1976 37.3926 24.5717 C.3 0 **** 0
6947 C 25.0159 38.0486 25.3755 C.3 0 **** -0.053
6948 C 26.4384 38.1904 23.2595 C.3 0 **** 0
6949 C 27.6852 37.6192 22.6203 C.3 0 **** 0.16
6950 C 27.5818 36.1161 22.3451 C.3 0 **** 0
6951 C 26.697 35.2331 23.1768 C.3 0 **** 0
6952 C 23.5009 33.3427 26.9231 C.3 0 **** 0
6953 C 23.1185 32.489 28.1277 C.3 0 **** -0.053
6954 C 25.3362 33.5227 25.0931 C.3 0 **** 0
6955 C 24.2278 32.6765 25.724 C.3 0 **** 0
6956 C 27.0124 33.7399 23.2678 C.3 0 **** 0
6957 C 25.7632 32.9673 23.7314 C.3 0 **** 0
6958 C 28.3366 35.4857 21.1742 C.3 0 **** 0
6959 C 28.5958 33.9614 21.3936 C.3 0 **** 0
6960 C 27.3662 33.1668 21.8711 C.3 0 **** 0
6961 O 28.0262 38.4268 21.5146 O.3 0 **** -0.32
6962 C 28.8159 39.4509 22.1176 C.3 0 **** 0.107
6963 C 28.0308 40.1227 23.2901 C.3 0 **** -0.053
6964 C 26.5553 39.7335 23.2283 C.3 0 **** 0.107
6965 C 28.1959 41.649 23.2477 C.3 0 **** -0.106
6966 C 29.6438 42.0117 22.8697 C.3 0 **** -0.106
6967 C 29.922 41.6506 21.3985 C.3 0 **** 0.134
6968 C 29.1555 40.3721 20.9649 C.3 0 **** -0.053
6969 C 29.906 39.5837 19.8631 C.3 0 **** -0.106
6970 C 30.6187 40.5533 18.9291 C.3 0 **** -0.106
6971 C 31.6441 41.4244 19.717 C.3 0 **** 0.081
6972 N 31.3451 41.5572 21.1417 N.3 0 **** -0.727
6973 C 24.5904 31.1684 25.7903 C.3 0 **** 0.16
6974 C 24.9196 30.6795 24.3884 C.3 0 **** 0.16
6975 C 26.1308 31.4245 23.9051 C.3 0 **** 0
6976 O 25.136 29.2885 24.2822 O.3 0 **** -0.32
6977 C 24.0745 28.5866 24.9203 C.3 0 **** 0.107
6978 C 24.0103 28.9979 26.3591 C.3 0 **** 0.107
6979 O 23.5954 30.3533 26.3897 O.3 0 **** -0.32
6980 C 25.3626 28.7942 27.0904 C.3 0 **** -0.106
6981 C 26.1943 27.6405 26.4591 C.3 0 **** -0.106
6982 C 25.2544 26.5637 25.8812 C.3 0 **** -0.106
6983 C 24.3676 27.1195 24.7309 C.3 0 **** -0.106
6984 C 27.7326 31.6197 21.9776 C.3 0 **** 0
6985 C 26.4778 30.8456 22.4943 C.3 0 **** -0.053
6986 C 29.0365 33.3455 20.0555 C.3 0 **** 0
6987 C 29.29 31.8281 20.1612 C.3 0 **** 0.16
6988 C 28.138 31.0342 20.6372 C.3 0 **** -0.053
6989 C 30.3494 34.1186 19.6395 C.3 0 **** 0
6990 C 30.0543 35.6661 19.481 C.3 0 **** 0
6991 C 29.6899 36.1891 20.879 C.3 0 **** -0.053
6992 O 29.7877 31.2155 19.0173 O.3 0 **** -0.32
6993 C 30.853 32.0001 18.4931 C.3 0 **** 0.16
6994 C 30.5956 33.5462 18.247 C.3 0 **** 0
6995 C 31.2198 36.5051 18.8865 C.3 0 **** -0.053
6996 C 31.7451 35.818 17.6277 C.3 0 **** -0.053
6997 C 31.8603 34.2515 17.7413 C.3 0 **** 0
6998 C 33.1523 36.2303 17.3603 C.3 0 **** -0.053
6999 C 33.345 37.6958 17.6479 C.3 0 **** -0.106
7000 C 33.2416 37.9112 19.1852 C.3 0 **** -0.106
7001 C 32.3753 36.827 19.8586 C.3 0 **** -0.106
7002 C 32.1811 33.669 16.3852 C.3 0 **** 0
7003 C 32.2765 32.1143 16.3862 C.3 0 **** 0
7004 C 31.2507 31.3348 17.2043 C.3 0 **** 0
7005 C 33.3266 35.8665 15.888 C.3 0 **** 0
7006 C 33.3831 34.3339 15.7516 C.3 0 **** 0
7007 C 22.8828 39.1999 35.7244 C.3 0 **** -0.053
7008 C 23.9431 38.7289 34.7181 C.3 0 **** -0.159
7009 C 23.4724 40.271 36.6495 C.3 0 **** -0.159
7010 O 25.8092 40.4228 24.2223 O.3 0 **** -0.57
7011 C 30.9351 29.8376 16.9301 C.3 0 **** -0.053
7012 C 31.9226 29.108 16.0148 C.3 0 **** -0.053
7013 C 32.3172 30.006 14.8297 C.3 0 **** 0
7014 C 32.9512 31.3669 15.2512 C.3 0 **** 0
7015 C 33.5575 32.2948 14.2141 C.3 0 **** 0
7016 C 34.0089 31.6693 12.9276 C.3 0 **** 0
7017 C 33.8472 30.135 12.7813 C.3 0 **** 0
7018 C 33.2962 29.2513 13.9256 C.3 0 **** -0.053
7019 C 34.5145 29.4375 11.6044 C.3 0 **** -0.053
7020 C 35.417 30.2732 10.6729 C.3 0 **** -0.053
7021 C 35.3186 31.828 10.7403 C.3 0 **** 0
7022 C 35.1588 32.3865 12.1788 C.3 0 **** 0
7023 C 34.9392 33.95 12.1827 C.3 0 **** 0
7024 C 34.7806 34.4762 13.6593 C.3 0 **** 0
7025 C 33.5564 33.8232 14.3329 C.3 0 **** 0
7026 C 36.1568 34.6319 11.481 C.3 0 **** 0
7027 C 36.2764 34.0623 10.0177 C.3 0 **** -0.053
7028 C 36.4743 32.5337 10.0078 C.3 0 **** -0.053
7029 C 34.5464 36.5181 15.2044 C.3 0 **** -0.053
7030 C 34.5232 36.0365 13.683 C.3 0 **** 0
7031 C 35.9372 36.2128 11.4482 C.3 0 **** 0.02
7032 C 35.655 36.7875 12.8811 C.3 0 **** 0
7033 C 35.525 38.3198 13.0515 C.3 0 **** -0.106
7034 C 35.7466 38.9949 11.7273 C.3 0 **** -0.106
7035 C 37.0229 38.4717 11.0782 C.3 0 **** -0.086
7036 C 37.0824 37.0095 10.8293 C.2 0 **** 0.379
7037 O 37.9538 36.546 10.1134 O.2 0 **** -0.419
7038 H 21.6407 33.8284 38.5975 H 0 **** 0.053
7039 H 20.9028 33.3863 37.0607 H 0 **** 0.053
7040 H 19.6405 34.8326 39.4036 H 0 **** 0.053
7041 H 19.1885 34.8545 37.7069 H 0 **** 0.053
7042 H 18.4912 32.7943 39.8549 H 0 **** 0.053
7043 H 17.5038 31.3407 38.1186 H 0 **** 0.053
7044 H 20.0586 31.0305 36.9322 H 0 **** 0.053
7045 H 19.5794 30.3628 38.489 H 0 **** 0.053
7046 H 18.9847 32.9143 36.0127 H 0 **** 0.053
7047 H 17.4646 34.6651 36.3577 H 0 **** 0.053
7048 H 15.6062 32.6584 37.6703 H 0 **** 0.053
7049 H 15.2722 34.3858 37.5089 H 0 **** 0.053
7050 H 16.3365 33.5997 39.7708 H 0 **** 0.053
7051 H 17.0549 35.0093 38.9999 H 0 **** 0.053
7052 H 16.0685 33.424 33.2371 H 0 **** 0.053
7053 H 16.1455 31.2653 33.9457 H 0 **** 0.053
7054 H 18.4189 30.6 35.467 H 0 **** 0.053
7055 H 16.7586 30.8547 36.0217 H 0 **** 0.053
7056 H 18.6653 34.2452 34.6407 H 0 **** 0.053
7057 H 20.6335 30.1138 30.2391 H 0 **** 0.053
7058 H 20.8247 30.0584 32.0118 H 0 **** 0.053
7059 H 18.9571 28.5055 31.3609 H 0 **** 0.053
7060 H 18.242 29.7706 30.3485 H 0 **** 0.053
7061 H 17.1724 29.3566 32.7628 H 0 **** 0.1268
7062 H 19.4429 36.335 34.3731 H 0 **** 0.053
7063 H 15.6819 37.6219 31.8911 H 0 **** 0.053
7064 H 15.2321 37.941 33.6058 H 0 **** 0.053
7065 H 15.4721 35.4601 33.3235 H 0 **** 0.1268
7066 H 16.0482 40.1707 32.4215 H 0 **** 0.053
7067 H 16.6634 40.2876 34.0885 H 0 **** 0.053
7068 H 17.9996 41.8392 32.6875 H 0 **** 0.053
7069 H 18.3235 40.5497 31.5094 H 0 **** 0.053
7070 H 20.4652 37.8953 35.3417 H 0 **** 0.053
7071 H 21.3853 37.919 33.8378 H 0 **** 0.053
7072 H 20.9715 40.1799 35.8399 H 0 **** 0.053
7073 H 22.2825 40.2491 33.0727 H 0 **** 0.053
7074 H 22.4786 41.5407 34.2625 H 0 **** 0.053
7075 H 20.5798 41.9041 32.5625 H 0 **** 0.053
7076 H 20.1248 42.064 34.2787 H 0 **** 0.053
7077 H 20.2663 38.2014 31.6312 H 0 **** 0.053
7078 H 23.8515 38.892 27.6142 H 0 **** 0.053
7079 H 25.3838 39.0204 25.8356 H 0 **** 0.053
7080 H 22.8161 31.4305 27.8761 H 0 **** 0.053
7081 H 29.7447 38.9944 22.4995 H 0 **** 0.053
7082 H 28.4584 39.7879 24.2577 H 0 **** 0.053
7083 H 26.1766 40.0043 22.2526 H 0 **** 0.053
7084 H 27.5005 42.0764 22.4928 H 0 **** 0.053
7085 H 27.9012 42.0911 24.227 H 0 **** 0.053
7086 H 30.3108 41.4391 23.5353 H 0 **** 0.053
7087 H 29.8574 43.0777 23.046 H 0 **** 0.053
7088 H 29.5335 42.4797 20.7853 H 0 **** 0.053
7089 H 28.174 40.6827 20.5512 H 0 **** 0.053
7090 H 30.6751 38.966 20.3499 H 0 **** 0.053
7091 H 29.218 38.9055 19.3282 H 0 **** 0.053
7092 H 29.847 41.1908 18.4605 H 0 **** 0.053
7093 H 31.1141 40.0211 18.0991 H 0 **** 0.053
7094 H 31.6803 42.4337 19.2767 H 0 **** 0.053
7095 H 32.662 41.0127 19.6019 H 0 **** 0.053
7096 H 31.7149 40.7772 21.6479 H 0 **** 0.353
7097 H 23.1455 28.8835 24.4339 H 0 **** 0.053
7098 H 23.2543 28.4092 26.8722 H 0 **** 0.053
7099 H 25.9842 29.7145 27.0774 H 0 **** 0.053
7100 H 25.2039 28.5867 28.1697 H 0 **** 0.053
7101 H 26.892 27.2051 27.2031 H 0 **** 0.053
7102 H 26.8323 28.0429 25.6465 H 0 **** 0.053
7103 H 24.5967 26.2228 26.6993 H 0 **** 0.053
7104 H 25.8256 25.6829 25.5359 H 0 **** 0.053
7105 H 23.4526 26.5083 24.6213 H 0 **** 0.053
7106 H 24.923 27.0283 23.7692 H 0 **** 0.053
7107 H 26.746 29.7356 22.5666 H 0 **** 0.053
7108 H 28.3168 29.9417 20.7172 H 0 **** 0.053
7109 H 29.5652 37.3054 20.7914 H 0 **** 0.053
7110 H 30.7541 37.4415 18.6111 H 0 **** 0.053
7111 H 31.0678 36.073 16.7892 H 0 **** 0.053
7112 H 33.8807 35.6547 17.9702 H 0 **** 0.053
7113 H 32.5551 38.2639 17.121 H 0 **** 0.053
7114 H 34.3182 38.1023 17.2964 H 0 **** 0.053
7115 H 32.8014 38.9069 19.394 H 0 **** 0.053
7116 H 34.2555 37.9267 19.629 H 0 **** 0.053
7117 H 32.021 37.1816 20.8434 H 0 **** 0.053
7118 H 32.9592 35.9161 20.044 H 0 **** 0.053
7119 H 22.6133 38.3345 36.3595 H 0 **** 0.053
7120 H 24.8034 38.2777 35.2379 H 0 **** 0.053
7121 H 24.3191 39.5754 34.1206 H 0 **** 0.053
7122 H 23.5494 37.9758 34.0168 H 0 **** 0.053
7123 H 22.7443 40.5808 37.416 H 0 **** 0.053
7124 H 23.7627 41.1677 36.0798 H 0 **** 0.053
7125 H 24.3675 39.897 37.17 H 0 **** 0.053
7126 H 24.9071 40.1259 24.1186 H 0 **** 0.41
7127 H 30.4921 29.2568 17.7872 H 0 **** 0.053
7128 H 31.5226 28.1091 15.688 H 0 **** 0.053
7129 H 32.9111 28.2613 13.5605 H 0 **** 0.053
7130 H 34.336 28.3465 11.4299 H 0 **** 0.053
7131 H 35.7107 29.807 9.70196 H 0 **** 0.053
7132 H 37.0987 34.5509 9.42981 H 0 **** 0.053
7133 H 36.6239 32.1142 8.98632 H 0 **** 0.053
7134 H 34.4886 37.6653 15.2563 H 0 **** 0.053
7135 H 34.547 38.5975 13.4823 H 0 **** 0.053
7136 H 36.295 38.5657 13.781 H 0 **** 0.053
7137 H 35.8112 40.0728 11.8648 H 0 **** 0.053
7138 H 34.8726 38.8045 11.0718 H 0 **** 0.053
7139 H 37.8903 38.6478 11.7194 H 0 **** 0.053
7140 H 37.2283 38.8567 10.0819 H 0 **** 0.053
@<TRIPOS>BOND
1 3 2 un
2 4 3 un
3 5 4 un
4 6 5 un
5 1 2 un
6 1 6 un
7 8 7 1
8 9 8 un
9 10 9 1
10 4 7 1
11 3 10 1
12 12 11 un
13 13 12 un
14 14 13 un
15 9 11 un
16 8 14 un
17 16 15 un
18 17 16 un
19 18 17 un
20 14 15 un
21 13 18 un
22 20 19 1
23 21 20 1
24 22 21 un
25 17 19 1
26 16 22 un
27 24 23 1
28 25 24 un
29 26 25 1
30 20 23 1
31 19 26 1
32 28 27 un
33 29 28 un
34 30 29 un
35 22 27 un
36 21 30 un
37 32 31 1
38 33 32 un
39 34 33 1
40 29 31 1
41 28 34 1
42 36 35 1
43 37 36 1
44 38 37 un
45 33 35 1
46 32 38 un
47 40 39 un
48 41 40 un
49 42 41 un
50 38 39 un
51 37 42 un
52 44 43 1
53 45 44 1
54 46 45 1
55 42 43 1
56 41 46 1
57 48 47 1
58 49 48 un
59 40 49 un
60 46 47 1
61 51 50 un
62 52 51 un
63 53 52 un
64 49 50 un
65 48 53 un
66 6 54 1
67 54 55 1
68 1 56 1
69 5 57 1
70 2 58 1
71 11 59 1
72 12 60 1
73 18 61 1
74 25 62 1
75 24 63 1
76 30 64 1
77 27 65 1
78 34 66 2
79 31 67 2
80 53 68 1
81 52 69 1
82 7 70 1
83 7 71 1
84 10 72 1
85 10 73 1
86 15 74 1
87 23 75 1
88 23 76 1
89 24 77 1
90 25 78 1
91 26 79 1
92 26 80 1
93 35 81 1
94 35 82 1
95 36 83 1
96 36 84 1
97 43 85 1
98 43 86 1
99 44 87 1
100 44 88 1
101 45 89 1
102 45 90 1
103 46 91 1
104 47 92 1
105 47 93 1
106 50 94 1
107 51 95 1
108 54 96 1
109 54 97 1
110 55 98 1
111 55 99 1
112 55 100 1
113 56 101 1
114 56 102 1
115 56 103 1
116 57 104 1
117 57 105 1
118 57 106 1
119 58 107 1
120 58 108 1
121 58 109 1
122 59 110 1
123 59 111 1
124 59 112 1
125 60 113 1
126 60 114 1
127 60 115 1
128 61 116 1
129 62 117 1
130 62 118 1
131 62 119 1
132 63 120 1
133 63 121 1
134 63 122 1
135 64 123 1
136 65 124 1
137 68 125 1
138 68 126 1
139 68 127 1
140 69 128 1
141 69 129 1
142 69 130 1
143 133 132 un
144 134 133 un
145 135 134 un
146 136 135 un
147 131 132 un
148 131 136 un
149 138 137 1
150 139 138 un
151 140 139 1
152 134 137 1
153 133 140 1
154 142 141 un
155 143 142 un
156 144 143 un
157 139 141 un
158 138 144 un
159 146 145 un
160 147 146 un
161 148 147 un
162 144 145 un
163 143 148 un
164 150 149 1
165 151 150 1
166 152 151 un
167 147 149 1
168 146 152 un
169 154 153 1
170 155 154 un
171 156 155 1
172 150 153 1
173 149 156 1
174 158 157 un
175 159 158 un
176 160 159 un
177 152 157 un
178 151 160 un
179 162 161 1
180 163 162 un
181 164 163 1
182 159 161 1
183 158 164 1
184 166 165 1
185 167 166 1
186 168 167 un
187 163 165 1
188 162 168 un
189 170 169 un
190 171 170 un
191 172 171 un
192 168 169 un
193 167 172 un
194 174 173 1
195 175 174 1
196 176 175 1
197 172 173 1
198 171 176 1
199 178 177 1
200 179 178 un
201 170 179 un
202 176 177 1
203 181 180 un
204 182 181 un
205 183 182 un
206 179 180 un
207 178 183 un
208 136 184 1
209 184 185 1
210 131 186 1
211 135 187 1
212 132 188 1
213 141 189 1
214 142 190 1
215 148 191 1
216 155 192 1
217 154 193 1
218 160 194 1
219 157 195 1
220 164 196 2
221 161 197 2
222 183 198 1
223 182 199 1
224 137 200 1
225 137 201 1
226 140 202 1
227 140 203 1
228 145 204 1
229 153 205 1
230 153 206 1
231 154 207 1
232 155 208 1
233 156 209 1
234 156 210 1
235 165 211 1
236 165 212 1
237 166 213 1
238 166 214 1
239 173 215 1
240 173 216 1
241 174 217 1
242 174 218 1
243 175 219 1
244 175 220 1
245 176 221 1
246 177 222 1
247 177 223 1
248 180 224 1
249 181 225 1
250 184 226 1
251 184 227 1
252 185 228 1
253 185 229 1
254 185 230 1
255 186 231 1
256 186 232 1
257 186 233 1
258 187 234 1
259 187 235 1
260 187 236 1
261 188 237 1
262 188 238 1
263 188 239 1
264 189 240 1
265 189 241 1
266 189 242 1
267 190 243 1
268 190 244 1
269 190 245 1
270 191 246 1
271 192 247 1
272 192 248 1
273 192 249 1
274 193 250 1
275 193 251 1
276 193 252 1
277 194 253 1
278 195 254 1
279 198 255 1
280 198 256 1
281 198 257 1
282 199 258 1
283 199 259 1
284 199 260 1
285 263 262 un
286 264 263 un
287 265 264 un
288 266 265 un
289 261 262 un
290 261 266 un
291 268 267 1
292 269 268 un
293 270 269 1
294 264 267 1
295 263 270 1
296 272 271 un
297 273 272 un
298 274 273 un
299 269 271 un
300 268 274 un
301 276 275 un
302 277 276 un
303 278 277 un
304 274 275 un
305 273 278 un
306 280 279 1
307 281 280 1
308 282 281 un
309 277 279 1
310 276 282 un
311 284 283 1
312 285 284 un
313 286 285 1
314 280 283 1
315 279 286 1
316 288 287 un
317 289 288 un
318 290 289 un
319 282 287 un
320 281 290 un
321 292 291 1
322 293 292 un
323 294 293 1
324 289 291 1
325 288 294 1
326 296 295 1
327 297 296 1
328 298 297 un
329 293 295 1
330 292 298 un
331 300 299 un
332 301 300 un
333 302 301 un
334 298 299 un
335 297 302 un
336 304 303 1
337 305 304 1
338 306 305 1
339 302 303 1
340 301 306 1
341 308 307 1
342 309 308 un
343 300 309 un
344 306 307 1
345 311 310 un
346 312 311 un
347 313 312 un
348 309 310 un
349 308 313 un
350 266 314 1
351 314 315 1
352 261 316 1
353 265 317 1
354 262 318 1
355 271 319 1
356 272 320 1
357 278 321 1
358 285 322 1
359 284 323 1
360 290 324 1
361 287 325 1
362 294 326 2
363 291 327 2
364 313 328 1
365 312 329 1
366 267 330 1
367 267 331 1
368 270 332 1
369 270 333 1
370 275 334 1
371 283 335 1
372 283 336 1
373 284 337 1
374 285 338 1
375 286 339 1
376 286 340 1
377 295 341 1
378 295 342 1
379 296 343 1
380 296 344 1
381 303 345 1
382 303 346 1
383 304 347 1
384 304 348 1
385 305 349 1
386 305 350 1
387 306 351 1
388 307 352 1
389 307 353 1
390 310 354 1
391 311 355 1
392 314 356 1
393 314 357 1
394 315 358 1
395 315 359 1
396 315 360 1
397 316 361 1
398 316 362 1
399 316 363 1
400 317 364 1
401 317 365 1
402 317 366 1
403 318 367 1
404 318 368 1
405 318 369 1
406 319 370 1
407 319 371 1
408 319 372 1
409 320 373 1
410 320 374 1
411 320 375 1
412 321 376 1
413 322 377 1
414 322 378 1
415 322 379 1
416 323 380 1
417 323 381 1
418 323 382 1
419 324 383 1
420 325 384 1
421 328 385 1
422 328 386 1
423 328 387 1
424 329 388 1
425 329 389 1
426 329 390 1
427 393 392 un
428 394 393 un
429 395 394 un
430 396 395 un
431 391 392 un
432 391 396 un
433 398 397 1
434 399 398 un
435 400 399 1
436 394 397 1
437 393 400 1
438 402 401 un
439 403 402 un
440 404 403 un
441 399 401 un
442 398 404 un
443 406 405 un
444 407 406 un
445 408 407 un
446 404 405 un
447 403 408 un
448 410 409 1
449 411 410 1
450 412 411 un
451 407 409 1
452 406 412 un
453 414 413 1
454 415 414 un
455 416 415 1
456 410 413 1
457 409 416 1
458 418 417 un
459 419 418 un
460 420 419 un
461 412 417 un
462 411 420 un
463 422 421 1
464 423 422 un
465 424 423 1
466 419 421 1
467 418 424 1
468 426 425 1
469 427 426 1
470 428 427 un
471 423 425 1
472 422 428 un
473 430 429 un
474 431 430 un
475 432 431 un
476 428 429 un
477 427 432 un
478 434 433 1
479 435 434 1
480 436 435 1
481 432 433 1
482 431 436 1
483 438 437 1
484 439 438 un
485 430 439 un
486 436 437 1
487 441 440 un
488 442 441 un
489 443 442 un
490 439 440 un
491 438 443 un
492 396 444 1
493 444 445 1
494 391 446 1
495 395 447 1
496 392 448 1
497 401 449 1
498 402 450 1
499 408 451 1
500 415 452 1
501 414 453 1
502 420 454 1
503 417 455 1
504 424 456 2
505 421 457 2
506 443 458 1
507 442 459 1
508 397 460 1
509 397 461 1
510 400 462 1
511 400 463 1
512 405 464 1
513 413 465 1
514 413 466 1
515 414 467 1
516 415 468 1
517 416 469 1
518 416 470 1
519 425 471 1
520 425 472 1
521 426 473 1
522 426 474 1
523 433 475 1
524 433 476 1
525 434 477 1
526 434 478 1
527 435 479 1
528 435 480 1
529 436 481 1
530 437 482 1
531 437 483 1
532 440 484 1
533 441 485 1
534 444 486 1
535 444 487 1
536 445 488 1
537 445 489 1
538 445 490 1
539 446 491 1
540 446 492 1
541 446 493 1
542 447 494 1
543 447 495 1
544 447 496 1
545 448 497 1
546 448 498 1
547 448 499 1
548 449 500 1
549 449 501 1
550 449 502 1
551 450 503 1
552 450 504 1
553 450 505 1
554 451 506 1
555 452 507 1
556 452 508 1
557 452 509 1
558 453 510 1
559 453 511 1
560 453 512 1
561 454 513 1
562 455 514 1
563 458 515 1
564 458 516 1
565 458 517 1
566 459 518 1
567 459 519 1
568 459 520 1
569 523 522 un
570 524 523 un
571 525 524 un
572 526 525 un
573 521 522 un
574 521 526 un
575 528 527 1
576 529 528 un
577 530 529 1
578 524 527 1
579 523 530 1
580 532 531 un
581 533 532 un
582 534 533 un
583 529 531 un
584 528 534 un
585 536 535 un
586 537 536 un
587 538 537 un
588 534 535 un
589 533 538 un
590 540 539 1
591 541 540 1
592 542 541 un
593 537 539 1
594 536 542 un
595 544 543 1
596 545 544 un
597 546 545 1
598 540 543 1
599 539 546 1
600 548 547 un
601 549 548 un
602 550 549 un
603 542 547 un
604 541 550 un
605 552 551 1
606 553 552 un
607 554 553 1
608 549 551 1
609 548 554 1
610 556 555 1
611 557 556 1
612 558 557 un
613 553 555 1
614 552 558 un
615 560 559 un
616 561 560 un
617 562 561 un
618 558 559 un
619 557 562 un
620 564 563 1
621 565 564 1
622 566 565 1
623 562 563 1
624 561 566 1
625 568 567 1
626 569 568 un
627 560 569 un
628 566 567 1
629 571 570 un
630 572 571 un
631 573 572 un
632 569 570 un
633 568 573 un
634 526 574 1
635 574 575 1
636 521 576 1
637 525 577 1
638 522 578 1
639 531 579 1
640 532 580 1
641 538 581 1
642 545 582 1
643 544 583 1
644 550 584 1
645 547 585 1
646 554 586 2
647 551 587 2
648 573 588 1
649 572 589 1
650 527 590 1
651 527 591 1
652 530 592 1
653 530 593 1
654 535 594 1
655 543 595 1
656 543 596 1
657 544 597 1
658 545 598 1
659 546 599 1
660 546 600 1
661 555 601 1
662 555 602 1
663 556 603 1
664 556 604 1
665 563 605 1
666 563 606 1
667 564 607 1
668 564 608 1
669 565 609 1
670 565 610 1
671 566 611 1
672 567 612 1
673 567 613 1
674 570 614 1
675 571 615 1
676 574 616 1
677 574 617 1
678 575 618 1
679 575 619 1
680 575 620 1
681 576 621 1
682 576 622 1
683 576 623 1
684 577 624 1
685 577 625 1
686 577 626 1
687 578 627 1
688 578 628 1
689 578 629 1
690 579 630 1
691 579 631 1
692 579 632 1
693 580 633 1
694 580 634 1
695 580 635 1
696 581 636 1
697 582 637 1
698 582 638 1
699 582 639 1
700 583 640 1
701 583 641 1
702 583 642 1
703 584 643 1
704 585 644 1
705 588 645 1
706 588 646 1
707 588 647 1
708 589 648 1
709 589 649 1
710 589 650 1
711 653 652 un
712 654 653 un
713 655 654 un
714 656 655 un
715 651 652 un
716 651 656 un
717 658 657 1
718 659 658 un
719 660 659 1
720 654 657 1
721 653 660 1
722 662 661 un
723 663 662 un
724 664 663 un
725 659 661 un
726 658 664 un
727 666 665 un
728 667 666 un
729 668 667 un
730 664 665 un
731 663 668 un
732 670 669 1
733 671 670 1
734 672 671 un
735 667 669 1
736 666 672 un
737 674 673 1
738 675 674 un
739 676 675 1
740 670 673 1
741 669 676 1
742 678 677 un
743 679 678 un
744 680 679 un
745 672 677 un
746 671 680 un
747 682 681 1
748 683 682 un
749 684 683 1
750 679 681 1
751 678 684 1
752 686 685 1
753 687 686 1
754 688 687 un
755 683 685 1
756 682 688 un
757 690 689 un
758 691 690 un
759 692 691 un
760 688 689 un
761 687 692 un
762 694 693 1
763 695 694 1
764 696 695 1
765 692 693 1
766 691 696 1
767 698 697 1
768 699 698 un
769 690 699 un
770 696 697 1
771 701 700 un
772 702 701 un
773 703 702 un
774 699 700 un
775 698 703 un
776 656 704 1
777 704 705 1
778 651 706 1
779 655 707 1
780 652 708 1
781 661 709 1
782 662 710 1
783 668 711 1
784 675 712 1
785 674 713 1
786 680 714 1
787 677 715 1
788 684 716 2
789 681 717 2
790 703 718 1
791 702 719 1
792 657 720 1
793 657 721 1
794 660 722 1
795 660 723 1
796 665 724 1
797 673 725 1
798 673 726 1
799 674 727 1
800 675 728 1
801 676 729 1
802 676 730 1
803 685 731 1
804 685 732 1
805 686 733 1
806 686 734 1
807 693 735 1
808 693 736 1
809 694 737 1
810 694 738 1
811 695 739 1
812 695 740 1
813 696 741 1
814 697 742 1
815 697 743 1
816 700 744 1
817 701 745 1
818 704 746 1
819 704 747 1
820 705 748 1
821 705 749 1
822 705 750 1
823 706 751 1
824 706 752 1
825 706 753 1
826 707 754 1
827 707 755 1
828 707 756 1
829 708 757 1
830 708 758 1
831 708 759 1
832 709 760 1
833 709 761 1
834 709 762 1
835 710 763 1
836 710 764 1
837 710 765 1
838 711 766 1
839 712 767 1
840 712 768 1
841 712 769 1
842 713 770 1
843 713 771 1
844 713 772 1
845 714 773 1
846 715 774 1
847 718 775 1
848 718 776 1
849 718 777 1
850 719 778 1
851 719 779 1
852 719 780 1
853 783 782 un
854 784 783 un
855 785 784 un
856 786 785 un
857 781 782 un
858 781 786 un
859 788 787 1
860 789 788 un
861 790 789 1
862 784 787 1
863 783 790 1
864 792 791 un
865 793 792 un
866 794 793 un
867 789 791 un
868 788 794 un
869 796 795 un
870 797 796 un
871 798 797 un
872 794 795 un
873 793 798 un
874 800 799 1
875 801 800 1
876 802 801 un
877 797 799 1
878 796 802 un
879 804 803 1
880 805 804 un
881 806 805 1
882 800 803 1
883 799 806 1
884 808 807 un
885 809 808 un
886 810 809 un
887 802 807 un
888 801 810 un
889 812 811 1
890 813 812 un
891 814 813 1
892 809 811 1
893 808 814 1
894 816 815 1
895 817 816 1
896 818 817 un
897 813 815 1
898 812 818 un
899 820 819 un
900 821 820 un
901 822 821 un
902 818 819 un
903 817 822 un
904 824 823 1
905 825 824 1
906 826 825 1
907 822 823 1
908 821 826 1
909 828 827 1
910 829 828 un
911 820 829 un
912 826 827 1
913 831 830 un
914 832 831 un
915 833 832 un
916 829 830 un
917 828 833 un
918 786 834 1
919 834 835 1
920 781 836 1
921 785 837 1
922 782 838 1
923 791 839 1
924 792 840 1
925 798 841 1
926 805 842 1
927 804 843 1
928 810 844 1
929 807 845 1
930 814 846 2
931 811 847 2
932 833 848 1
933 832 849 1
934 787 850 1
935 787 851 1
936 790 852 1
937 790 853 1
938 795 854 1
939 803 855 1
940 803 856 1
941 804 857 1
942 805 858 1
943 806 859 1
944 806 860 1
945 815 861 1
946 815 862 1
947 816 863 1
948 816 864 1
949 823 865 1
950 823 866 1
951 824 867 1
952 824 868 1
953 825 869 1
954 825 870 1
955 826 871 1
956 827 872 1
957 827 873 1
958 830 874 1
959 831 875 1
960 834 876 1
961 834 877 1
962 835 878 1
963 835 879 1
964 835 880 1
965 836 881 1
966 836 882 1
967 836 883 1
968 837 884 1
969 837 885 1
970 837 886 1
971 838 887 1
972 838 888 1
973 838 889 1
974 839 890 1
975 839 891 1
976 839 892 1
977 840 893 1
978 840 894 1
979 840 895 1
980 841 896 1
981 842 897 1
982 842 898 1
983 842 899 1
984 843 900 1
985 843 901 1
986 843 902 1
987 844 903 1
988 845 904 1
989 848 905 1
990 848 906 1
991 848 907 1
992 849 908 1
993 849 909 1
994 849 910 1
995 913 912 un
996 914 913 un
997 915 914 un
998 916 915 un
999 911 912 un
1000 911 916 un
1001 918 917 1
1002 919 918 un
1003 920 919 1
1004 914 917 1
1005 913 920 1
1006 922 921 un
1007 923 922 un
1008 924 923 un
1009 919 921 un
1010 918 924 un
1011 926 925 un
1012 927 926 un
1013 928 927 un
1014 924 925 un
1015 923 928 un
1016 930 929 1
1017 931 930 1
1018 932 931 un
1019 927 929 1
1020 926 932 un
1021 934 933 1
1022 935 934 un
1023 936 935 1
1024 930 933 1
1025 929 936 1
1026 938 937 un
1027 939 938 un
1028 940 939 un
1029 932 937 un
1030 931 940 un
1031 942 941 1
1032 943 942 un
1033 944 943 1
1034 939 941 1
1035 938 944 1
1036 946 945 1
1037 947 946 1
1038 948 947 un
1039 943 945 1
1040 942 948 un
1041 950 949 un
1042 951 950 un
1043 952 951 un
1044 948 949 un
1045 947 952 un
1046 954 953 1
1047 955 954 1
1048 956 955 1
1049 952 953 1
1050 951 956 1
1051 958 957 1
1052 959 958 un
1053 950 959 un
1054 956 957 1
1055 961 960 un
1056 962 961 un
1057 963 962 un
1058 959 960 un
1059 958 963 un
1060 916 964 1
1061 964 965 1
1062 911 966 1
1063 915 967 1
1064 912 968 1
1065 921 969 1
1066 922 970 1
1067 928 971 1
1068 935 972 1
1069 934 973 1
1070 940 974 1
1071 937 975 1
1072 944 976 2
1073 941 977 2
1074 963 978 1
1075 962 979 1
1076 917 980 1
1077 917 981 1
1078 920 982 1
1079 920 983 1
1080 925 984 1
1081 933 985 1
1082 933 986 1
1083 934 987 1
1084 935 988 1
1085 936 989 1
1086 936 990 1
1087 945 991 1
1088 945 992 1
1089 946 993 1
1090 946 994 1
1091 953 995 1
1092 953 996 1
1093 954 997 1
1094 954 998 1
1095 955 999 1
1096 955 1000 1
1097 956 1001 1
1098 957 1002 1
1099 957 1003 1
1100 960 1004 1
1101 961 1005 1
1102 964 1006 1
1103 964 1007 1
1104 965 1008 1
1105 965 1009 1
1106 965 1010 1
1107 966 1011 1
1108 966 1012 1
1109 966 1013 1
1110 967 1014 1
1111 967 1015 1
1112 967 1016 1
1113 968 1017 1
1114 968 1018 1
1115 968 1019 1
1116 969 1020 1
1117 969 1021 1
1118 969 1022 1
1119 970 1023 1
1120 970 1024 1
1121 970 1025 1
1122 971 1026 1
1123 972 1027 1
1124 972 1028 1
1125 972 1029 1
1126 973 1030 1
1127 973 1031 1
1128 973 1032 1
1129 974 1033 1
1130 975 1034 1
1131 978 1035 1
1132 978 1036 1
1133 978 1037 1
1134 979 1038 1
1135 979 1039 1
1136 979 1040 1
1137 1043 1042 un
1138 1044 1043 un
1139 1045 1044 un
1140 1046 1045 un
1141 1041 1042 un
1142 1041 1046 un
1143 1048 1047 1
1144 1049 1048 un
1145 1050 1049 1
1146 1044 1047 1
1147 1043 1050 1
1148 1052 1051 un
1149 1053 1052 un
1150 1054 1053 un
1151 1049 1051 un
1152 1048 1054 un
1153 1056 1055 un
1154 1057 1056 un
1155 1058 1057 un
1156 1054 1055 un
1157 1053 1058 un
1158 1060 1059 1
1159 1061 1060 1
1160 1062 1061 un
1161 1057 1059 1
1162 1056 1062 un
1163 1064 1063 1
1164 1065 1064 un
1165 1066 1065 1
1166 1060 1063 1
1167 1059 1066 1
1168 1068 1067 un
1169 1069 1068 un
1170 1070 1069 un
1171 1062 1067 un
1172 1061 1070 un
1173 1072 1071 1
1174 1073 1072 un
1175 1074 1073 1
1176 1069 1071 1
1177 1068 1074 1
1178 1076 1075 1
1179 1077 1076 1
1180 1078 1077 un
1181 1073 1075 1
1182 1072 1078 un
1183 1080 1079 un
1184 1081 1080 un
1185 1082 1081 un
1186 1078 1079 un
1187 1077 1082 un
1188 1084 1083 1
1189 1085 1084 1
1190 1086 1085 1
1191 1082 1083 1
1192 1081 1086 1
1193 1088 1087 1
1194 1089 1088 un
1195 1080 1089 un
1196 1086 1087 1
1197 1091 1090 un
1198 1092 1091 un
1199 1093 1092 un
1200 1089 1090 un
1201 1088 1093 un
1202 1046 1094 1
1203 1094 1095 1
1204 1041 1096 1
1205 1045 1097 1
1206 1042 1098 1
1207 1051 1099 1
1208 1052 1100 1
1209 1058 1101 1
1210 1065 1102 1
1211 1064 1103 1
1212 1070 1104 1
1213 1067 1105 1
1214 1074 1106 2
1215 1071 1107 2
1216 1093 1108 1
1217 1092 1109 1
1218 1047 1110 1
1219 1047 1111 1
1220 1050 1112 1
1221 1050 1113 1
1222 1055 1114 1
1223 1063 1115 1
1224 1063 1116 1
1225 1064 1117 1
1226 1065 1118 1
1227 1066 1119 1
1228 1066 1120 1
1229 1075 1121 1
1230 1075 1122 1
1231 1076 1123 1
1232 1076 1124 1
1233 1083 1125 1
1234 1083 1126 1
1235 1084 1127 1
1236 1084 1128 1
1237 1085 1129 1
1238 1085 1130 1
1239 1086 1131 1
1240 1087 1132 1
1241 1087 1133 1
1242 1090 1134 1
1243 1091 1135 1
1244 1094 1136 1
1245 1094 1137 1
1246 1095 1138 1
1247 1095 1139 1
1248 1095 1140 1
1249 1096 1141 1
1250 1096 1142 1
1251 1096 1143 1
1252 1097 1144 1
1253 1097 1145 1
1254 1097 1146 1
1255 1098 1147 1
1256 1098 1148 1
1257 1098 1149 1
1258 1099 1150 1
1259 1099 1151 1
1260 1099 1152 1
1261 1100 1153 1
1262 1100 1154 1
1263 1100 1155 1
1264 1101 1156 1
1265 1102 1157 1
1266 1102 1158 1
1267 1102 1159 1
1268 1103 1160 1
1269 1103 1161 1
1270 1103 1162 1
1271 1104 1163 1
1272 1105 1164 1
1273 1108 1165 1
1274 1108 1166 1
1275 1108 1167 1
1276 1109 1168 1
1277 1109 1169 1
1278 1109 1170 1
1279 1173 1172 un
1280 1174 1173 un
1281 1175 1174 un
1282 1176 1175 un
1283 1171 1172 un
1284 1171 1176 un
1285 1178 1177 1
1286 1179 1178 un
1287 1180 1179 1
1288 1174 1177 1
1289 1173 1180 1
1290 1182 1181 un
1291 1183 1182 un
1292 1184 1183 un
1293 1179 1181 un
1294 1178 1184 un
1295 1186 1185 un
1296 1187 1186 un
1297 1188 1187 un
1298 1184 1185 un
1299 1183 1188 un
1300 1190 1189 1
1301 1191 1190 1
1302 1192 1191 un
1303 1187 1189 1
1304 1186 1192 un
1305 1194 1193 1
1306 1195 1194 un
1307 1196 1195 1
1308 1190 1193 1
1309 1189 1196 1
1310 1198 1197 un
1311 1199 1198 un
1312 1200 1199 un
1313 1192 1197 un
1314 1191 1200 un
1315 1202 1201 1
1316 1203 1202 un
1317 1204 1203 1
1318 1199 1201 1
1319 1198 1204 1
1320 1206 1205 1
1321 1207 1206 1
1322 1208 1207 un
1323 1203 1205 1
1324 1202 1208 un
1325 1210 1209 un
1326 1211 1210 un
1327 1212 1211 un
1328 1208 1209 un
1329 1207 1212 un
1330 1214 1213 1
1331 1215 1214 1
1332 1216 1215 1
1333 1212 1213 1
1334 1211 1216 1
1335 1218 1217 1
1336 1219 1218 un
1337 1210 1219 un
1338 1216 1217 1
1339 1221 1220 un
1340 1222 1221 un
1341 1223 1222 un
1342 1219 1220 un
1343 1218 1223 un
1344 1176 1224 1
1345 1224 1225 1
1346 1171 1226 1
1347 1175 1227 1
1348 1172 1228 1
1349 1181 1229 1
1350 1182 1230 1
1351 1188 1231 1
1352 1195 1232 1
1353 1194 1233 1
1354 1200 1234 1
1355 1197 1235 1
1356 1204 1236 2
1357 1201 1237 2
1358 1223 1238 1
1359 1222 1239 1
1360 1177 1240 1
1361 1177 1241 1
1362 1180 1242 1
1363 1180 1243 1
1364 1185 1244 1
1365 1193 1245 1
1366 1193 1246 1
1367 1194 1247 1
1368 1195 1248 1
1369 1196 1249 1
1370 1196 1250 1
1371 1205 1251 1
1372 1205 1252 1
1373 1206 1253 1
1374 1206 1254 1
1375 1213 1255 1
1376 1213 1256 1
1377 1214 1257 1
1378 1214 1258 1
1379 1215 1259 1
1380 1215 1260 1
1381 1216 1261 1
1382 1217 1262 1
1383 1217 1263 1
1384 1220 1264 1
1385 1221 1265 1
1386 1224 1266 1
1387 1224 1267 1
1388 1225 1268 1
1389 1225 1269 1
1390 1225 1270 1
1391 1226 1271 1
1392 1226 1272 1
1393 1226 1273 1
1394 1227 1274 1
1395 1227 1275 1
1396 1227 1276 1
1397 1228 1277 1
1398 1228 1278 1
1399 1228 1279 1
1400 1229 1280 1
1401 1229 1281 1
1402 1229 1282 1
1403 1230 1283 1
1404 1230 1284 1
1405 1230 1285 1
1406 1231 1286 1
1407 1232 1287 1
1408 1232 1288 1
1409 1232 1289 1
1410 1233 1290 1
1411 1233 1291 1
1412 1233 1292 1
1413 1234 1293 1
1414 1235 1294 1
1415 1238 1295 1
1416 1238 1296 1
1417 1238 1297 1
1418 1239 1298 1
1419 1239 1299 1
1420 1239 1300 1
1421 1303 1302 un
1422 1304 1303 un
1423 1305 1304 un
1424 1306 1305 un
1425 1301 1302 un
1426 1301 1306 un
1427 1308 1307 1
1428 1309 1308 un
1429 1310 1309 1
1430 1304 1307 1
1431 1303 1310 1
1432 1312 1311 un
1433 1313 1312 un
1434 1314 1313 un
1435 1309 1311 un
1436 1308 1314 un
1437 1316 1315 un
1438 1317 1316 un
1439 1318 1317 un
1440 1314 1315 un
1441 1313 1318 un
1442 1320 1319 1
1443 1321 1320 1
1444 1322 1321 un
1445 1317 1319 1
1446 1316 1322 un
1447 1324 1323 1
1448 1325 1324 un
1449 1326 1325 1
1450 1320 1323 1
1451 1319 1326 1
1452 1328 1327 un
1453 1329 1328 un
1454 1330 1329 un
1455 1322 1327 un
1456 1321 1330 un
1457 1332 1331 1
1458 1333 1332 un
1459 1334 1333 1
1460 1329 1331 1
1461 1328 1334 1
1462 1336 1335 1
1463 1337 1336 1
1464 1338 1337 un
1465 1333 1335 1
1466 1332 1338 un
1467 1340 1339 un
1468 1341 1340 un
1469 1342 1341 un
1470 1338 1339 un
1471 1337 1342 un
1472 1344 1343 1
1473 1345 1344 1
1474 1346 1345 1
1475 1342 1343 1
1476 1341 1346 1
1477 1348 1347 1
1478 1349 1348 un
1479 1340 1349 un
1480 1346 1347 1
1481 1351 1350 un
1482 1352 1351 un
1483 1353 1352 un
1484 1349 1350 un
1485 1348 1353 un
1486 1306 1354 1
1487 1354 1355 1
1488 1301 1356 1
1489 1305 1357 1
1490 1302 1358 1
1491 1311 1359 1
1492 1312 1360 1
1493 1318 1361 1
1494 1325 1362 1
1495 1324 1363 1
1496 1330 1364 1
1497 1327 1365 1
1498 1334 1366 2
1499 1331 1367 2
1500 1353 1368 1
1501 1352 1369 1
1502 1307 1370 1
1503 1307 1371 1
1504 1310 1372 1
1505 1310 1373 1
1506 1315 1374 1
1507 1323 1375 1
1508 1323 1376 1
1509 1324 1377 1
1510 1325 1378 1
1511 1326 1379 1
1512 1326 1380 1
1513 1335 1381 1
1514 1335 1382 1
1515 1336 1383 1
1516 1336 1384 1
1517 1343 1385 1
1518 1343 1386 1
1519 1344 1387 1
1520 1344 1388 1
1521 1345 1389 1
1522 1345 1390 1
1523 1346 1391 1
1524 1347 1392 1
1525 1347 1393 1
1526 1350 1394 1
1527 1351 1395 1
1528 1354 1396 1
1529 1354 1397 1
1530 1355 1398 1
1531 1355 1399 1
1532 1355 1400 1
1533 1356 1401 1
1534 1356 1402 1
1535 1356 1403 1
1536 1357 1404 1
1537 1357 1405 1
1538 1357 1406 1
1539 1358 1407 1
1540 1358 1408 1
1541 1358 1409 1
1542 1359 1410 1
1543 1359 1411 1
1544 1359 1412 1
1545 1360 1413 1
1546 1360 1414 1
1547 1360 1415 1
1548 1361 1416 1
1549 1362 1417 1
1550 1362 1418 1
1551 1362 1419 1
1552 1363 1420 1
1553 1363 1421 1
1554 1363 1422 1
1555 1364 1423 1
1556 1365 1424 1
1557 1368 1425 1
1558 1368 1426 1
1559 1368 1427 1
1560 1369 1428 1
1561 1369 1429 1
1562 1369 1430 1
1563 1433 1432 un
1564 1434 1433 un
1565 1435 1434 un
1566 1436 1435 un
1567 1431 1432 un
1568 1431 1436 un
1569 1438 1437 1
1570 1439 1438 un
1571 1440 1439 1
1572 1434 1437 1
1573 1433 1440 1
1574 1442 1441 un
1575 1443 1442 un
1576 1444 1443 un
1577 1439 1441 un
1578 1438 1444 un
1579 1446 1445 un
1580 1447 1446 un
1581 1448 1447 un
1582 1444 1445 un
1583 1443 1448 un
1584 1450 1449 1
1585 1451 1450 1
1586 1452 1451 un
1587 1447 1449 1
1588 1446 1452 un
1589 1454 1453 1
1590 1455 1454 un
1591 1456 1455 1
1592 1450 1453 1
1593 1449 1456 1
1594 1458 1457 un
1595 1459 1458 un
1596 1460 1459 un
1597 1452 1457 un
1598 1451 1460 un
1599 1462 1461 1
1600 1463 1462 un
1601 1464 1463 1
1602 1459 1461 1
1603 1458 1464 1
1604 1466 1465 1
1605 1467 1466 1
1606 1468 1467 un
1607 1463 1465 1
1608 1462 1468 un
1609 1470 1469 un
1610 1471 1470 un
1611 1472 1471 un
1612 1468 1469 un
1613 1467 1472 un
1614 1474 1473 1
1615 1475 1474 1
1616 1476 1475 1
1617 1472 1473 1
1618 1471 1476 1
1619 1478 1477 1
1620 1479 1478 un
1621 1470 1479 un
1622 1476 1477 1
1623 1481 1480 un
1624 1482 1481 un
1625 1483 1482 un
1626 1479 1480 un
1627 1478 1483 un
1628 1436 1484 1
1629 1484 1485 1
1630 1431 1486 1
1631 1435 1487 1
1632 1432 1488 1
1633 1441 1489 1
1634 1442 1490 1
1635 1448 1491 1
1636 1455 1492 1
1637 1454 1493 1
1638 1460 1494 1
1639 1457 1495 1
1640 1464 1496 2
1641 1461 1497 2
1642 1483 1498 1
1643 1482 1499 1
1644 1437 1500 1
1645 1437 1501 1
1646 1440 1502 1
1647 1440 1503 1
1648 1445 1504 1
1649 1453 1505 1
1650 1453 1506 1
1651 1454 1507 1
1652 1455 1508 1
1653 1456 1509 1
1654 1456 1510 1
1655 1465 1511 1
1656 1465 1512 1
1657 1466 1513 1
1658 1466 1514 1
1659 1473 1515 1
1660 1473 1516 1
1661 1474 1517 1
1662 1474 1518 1
1663 1475 1519 1
1664 1475 1520 1
1665 1476 1521 1
1666 1477 1522 1
1667 1477 1523 1
1668 1480 1524 1
1669 1481 1525 1
1670 1484 1526 1
1671 1484 1527 1
1672 1485 1528 1
1673 1485 1529 1
1674 1485 1530 1
1675 1486 1531 1
1676 1486 1532 1
1677 1486 1533 1
1678 1487 1534 1
1679 1487 1535 1
1680 1487 1536 1
1681 1488 1537 1
1682 1488 1538 1
1683 1488 1539 1
1684 1489 1540 1
1685 1489 1541 1
1686 1489 1542 1
1687 1490 1543 1
1688 1490 1544 1
1689 1490 1545 1
1690 1491 1546 1
1691 1492 1547 1
1692 1492 1548 1
1693 1492 1549 1
1694 1493 1550 1
1695 1493 1551 1
1696 1493 1552 1
1697 1494 1553 1
1698 1495 1554 1
1699 1498 1555 1
1700 1498 1556 1
1701 1498 1557 1
1702 1499 1558 1
1703 1499 1559 1
1704 1499 1560 1
1705 1563 1562 un
1706 1564 1563 un
1707 1565 1564 un
1708 1566 1565 un
1709 1561 1562 un
1710 1561 1566 un
1711 1568 1567 1
1712 1569 1568 un
1713 1570 1569 1
1714 1564 1567 1
1715 1563 1570 1
1716 1572 1571 un
1717 1573 1572 un
1718 1574 1573 un
1719 1569 1571 un
1720 1568 1574 un
1721 1576 1575 un
1722 1577 1576 un
1723 1578 1577 un
1724 1574 1575 un
1725 1573 1578 un
1726 1580 1579 1
1727 1581 1580 1
1728 1582 1581 un
1729 1577 1579 1
1730 1576 1582 un
1731 1584 1583 1
1732 1585 1584 un
1733 1586 1585 1
1734 1580 1583 1
1735 1579 1586 1
1736 1588 1587 un
1737 1589 1588 un
1738 1590 1589 un
1739 1582 1587 un
1740 1581 1590 un
1741 1592 1591 1
1742 1593 1592 un
1743 1594 1593 1
1744 1589 1591 1
1745 1588 1594 1
1746 1596 1595 1
1747 1597 1596 1
1748 1598 1597 un
1749 1593 1595 1
1750 1592 1598 un
1751 1600 1599 un
1752 1601 1600 un
1753 1602 1601 un
1754 1598 1599 un
1755 1597 1602 un
1756 1604 1603 1
1757 1605 1604 1
1758 1606 1605 1
1759 1602 1603 1
1760 1601 1606 1
1761 1608 1607 1
1762 1609 1608 un
1763 1600 1609 un
1764 1606 1607 1
1765 1611 1610 un
1766 1612 1611 un
1767 1613 1612 un
1768 1609 1610 un
1769 1608 1613 un
1770 1566 1614 1
1771 1614 1615 1
1772 1561 1616 1
1773 1565 1617 1
1774 1562 1618 1
1775 1571 1619 1
1776 1572 1620 1
1777 1578 1621 1
1778 1585 1622 1
1779 1584 1623 1
1780 1590 1624 1
1781 1587 1625 1
1782 1594 1626 2
1783 1591 1627 2
1784 1613 1628 1
1785 1612 1629 1
1786 1567 1630 1
1787 1567 1631 1
1788 1570 1632 1
1789 1570 1633 1
1790 1575 1634 1
1791 1583 1635 1
1792 1583 1636 1
1793 1584 1637 1
1794 1585 1638 1
1795 1586 1639 1
1796 1586 1640 1
1797 1595 1641 1
1798 1595 1642 1
1799 1596 1643 1
1800 1596 1644 1
1801 1603 1645 1
1802 1603 1646 1
1803 1604 1647 1
1804 1604 1648 1
1805 1605 1649 1
1806 1605 1650 1
1807 1606 1651 1
1808 1607 1652 1
1809 1607 1653 1
1810 1610 1654 1
1811 1611 1655 1
1812 1614 1656 1
1813 1614 1657 1
1814 1615 1658 1
1815 1615 1659 1
1816 1615 1660 1
1817 1616 1661 1
1818 1616 1662 1
1819 1616 1663 1
1820 1617 1664 1
1821 1617 1665 1
1822 1617 1666 1
1823 1618 1667 1
1824 1618 1668 1
1825 1618 1669 1
1826 1619 1670 1
1827 1619 1671 1
1828 1619 1672 1
1829 1620 1673 1
1830 1620 1674 1
1831 1620 1675 1
1832 1621 1676 1
1833 1622 1677 1
1834 1622 1678 1
1835 1622 1679 1
1836 1623 1680 1
1837 1623 1681 1
1838 1623 1682 1
1839 1624 1683 1
1840 1625 1684 1
1841 1628 1685 1
1842 1628 1686 1
1843 1628 1687 1
1844 1629 1688 1
1845 1629 1689 1
1846 1629 1690 1
1847 1693 1692 un
1848 1694 1693 un
1849 1695 1694 un
1850 1696 1695 un
1851 1691 1692 un
1852 1691 1696 un
1853 1698 1697 1
1854 1699 1698 un
1855 1700 1699 1
1856 1694 1697 1
1857 1693 1700 1
1858 1702 1701 un
1859 1703 1702 un
1860 1704 1703 un
1861 1699 1701 un
1862 1698 1704 un
1863 1706 1705 un
1864 1707 1706 un
1865 1708 1707 un
1866 1704 1705 un
1867 1703 1708 un
1868 1710 1709 1
1869 1711 1710 1
1870 1712 1711 un
1871 1707 1709 1
1872 1706 1712 un
1873 1714 1713 1
1874 1715 1714 un
1875 1716 1715 1
1876 1710 1713 1
1877 1709 1716 1
1878 1718 1717 un
1879 1719 1718 un
1880 1720 1719 un
1881 1712 1717 un
1882 1711 1720 un
1883 1722 1721 1
1884 1723 1722 un
1885 1724 1723 1
1886 1719 1721 1
1887 1718 1724 1
1888 1726 1725 1
1889 1727 1726 1
1890 1728 1727 un
1891 1723 1725 1
1892 1722 1728 un
1893 1730 1729 un
1894 1731 1730 un
1895 1732 1731 un
1896 1728 1729 un
1897 1727 1732 un
1898 1734 1733 1
1899 1735 1734 1
1900 1736 1735 1
1901 1732 1733 1
1902 1731 1736 1
1903 1738 1737 1
1904 1739 1738 un
1905 1730 1739 un
1906 1736 1737 1
1907 1741 1740 un
1908 1742 1741 un
1909 1743 1742 un
1910 1739 1740 un
1911 1738 1743 un
1912 1696 1744 1
1913 1744 1745 1
1914 1691 1746 1
1915 1695 1747 1
1916 1692 1748 1
1917 1701 1749 1
1918 1702 1750 1
1919 1708 1751 1
1920 1715 1752 1
1921 1714 1753 1
1922 1720 1754 1
1923 1717 1755 1
1924 1724 1756 2
1925 1721 1757 2
1926 1743 1758 1
1927 1742 1759 1
1928 1697 1760 1
1929 1697 1761 1
1930 1700 1762 1
1931 1700 1763 1
1932 1705 1764 1
1933 1713 1765 1
1934 1713 1766 1
1935 1714 1767 1
1936 1715 1768 1
1937 1716 1769 1
1938 1716 1770 1
1939 1725 1771 1
1940 1725 1772 1
1941 1726 1773 1
1942 1726 1774 1
1943 1733 1775 1
1944 1733 1776 1
1945 1734 1777 1
1946 1734 1778 1
1947 1735 1779 1
1948 1735 1780 1
1949 1736 1781 1
1950 1737 1782 1
1951 1737 1783 1
1952 1740 1784 1
1953 1741 1785 1
1954 1744 1786 1
1955 1744 1787 1
1956 1745 1788 1
1957 1745 1789 1
1958 1745 1790 1
1959 1746 1791 1
1960 1746 1792 1
1961 1746 1793 1
1962 1747 1794 1
1963 1747 1795 1
1964 1747 1796 1
1965 1748 1797 1
1966 1748 1798 1
1967 1748 1799 1
1968 1749 1800 1
1969 1749 1801 1
1970 1749 1802 1
1971 1750 1803 1
1972 1750 1804 1
1973 1750 1805 1
1974 1751 1806 1
1975 1752 1807 1
1976 1752 1808 1
1977 1752 1809 1
1978 1753 1810 1
1979 1753 1811 1
1980 1753 1812 1
1981 1754 1813 1
1982 1755 1814 1
1983 1758 1815 1
1984 1758 1816 1
1985 1758 1817 1
1986 1759 1818 1
1987 1759 1819 1
1988 1759 1820 1
1989 1823 1822 un
1990 1824 1823 un
1991 1825 1824 un
1992 1826 1825 un
1993 1821 1822 un
1994 1821 1826 un
1995 1828 1827 1
1996 1829 1828 un
1997 1830 1829 1
1998 1824 1827 1
1999 1823 1830 1
2000 1832 1831 un
2001 1833 1832 un
2002 1834 1833 un
2003 1829 1831 un
2004 1828 1834 un
2005 1836 1835 un
2006 1837 1836 un
2007 1838 1837 un
2008 1834 1835 un
2009 1833 1838 un
2010 1840 1839 1
2011 1841 1840 1
2012 1842 1841 un
2013 1837 1839 1
2014 1836 1842 un
2015 1844 1843 1
2016 1845 1844 un
2017 1846 1845 1
2018 1840 1843 1
2019 1839 1846 1
2020 1848 1847 un
2021 1849 1848 un
2022 1850 1849 un
2023 1842 1847 un
2024 1841 1850 un
2025 1852 1851 1
2026 1853 1852 un
2027 1854 1853 1
2028 1849 1851 1
2029 1848 1854 1
2030 1856 1855 1
2031 1857 1856 1
2032 1858 1857 un
2033 1853 1855 1
2034 1852 1858 un
2035 1860 1859 un
2036 1861 1860 un
2037 1862 1861 un
2038 1858 1859 un
2039 1857 1862 un
2040 1864 1863 1
2041 1865 1864 1
2042 1866 1865 1
2043 1862 1863 1
2044 1861 1866 1
2045 1868 1867 1
2046 1869 1868 un
2047 1860 1869 un
2048 1866 1867 1
2049 1871 1870 un
2050 1872 1871 un
2051 1873 1872 un
2052 1869 1870 un
2053 1868 1873 un
2054 1826 1874 1
2055 1874 1875 1
2056 1821 1876 1
2057 1825 1877 1
2058 1822 1878 1
2059 1831 1879 1
2060 1832 1880 1
2061 1838 1881 1
2062 1845 1882 1
2063 1844 1883 1
2064 1850 1884 1
2065 1847 1885 1
2066 1854 1886 2
2067 1851 1887 2
2068 1873 1888 1
2069 1872 1889 1
2070 1827 1890 1
2071 1827 1891 1
2072 1830 1892 1
2073 1830 1893 1
2074 1835 1894 1
2075 1843 1895 1
2076 1843 1896 1
2077 1844 1897 1
2078 1845 1898 1
2079 1846 1899 1
2080 1846 1900 1
2081 1855 1901 1
2082 1855 1902 1
2083 1856 1903 1
2084 1856 1904 1
2085 1863 1905 1
2086 1863 1906 1
2087 1864 1907 1
2088 1864 1908 1
2089 1865 1909 1
2090 1865 1910 1
2091 1866 1911 1
2092 1867 1912 1
2093 1867 1913 1
2094 1870 1914 1
2095 1871 1915 1
2096 1874 1916 1
2097 1874 1917 1
2098 1875 1918 1
2099 1875 1919 1
2100 1875 1920 1
2101 1876 1921 1
2102 1876 1922 1
2103 1876 1923 1
2104 1877 1924 1
2105 1877 1925 1
2106 1877 1926 1
2107 1878 1927 1
2108 1878 1928 1
2109 1878 1929 1
2110 1879 1930 1
2111 1879 1931 1
2112 1879 1932 1
2113 1880 1933 1
2114 1880 1934 1
2115 1880 1935 1
2116 1881 1936 1
2117 1882 1937 1
2118 1882 1938 1
2119 1882 1939 1
2120 1883 1940 1
2121 1883 1941 1
2122 1883 1942 1
2123 1884 1943 1
2124 1885 1944 1
2125 1888 1945 1
2126 1888 1946 1
2127 1888 1947 1
2128 1889 1948 1
2129 1889 1949 1
2130 1889 1950 1
2131 1953 1952 un
2132 1954 1953 un
2133 1955 1954 un
2134 1956 1955 un
2135 1951 1952 un
2136 1951 1956 un
2137 1958 1957 1
2138 1959 1958 un
2139 1960 1959 1
2140 1954 1957 1
2141 1953 1960 1
2142 1962 1961 un
2143 1963 1962 un
2144 1964 1963 un
2145 1959 1961 un
2146 1958 1964 un
2147 1966 1965 un
2148 1967 1966 un
2149 1968 1967 un
2150 1964 1965 un
2151 1963 1968 un
2152 1970 1969 1
2153 1971 1970 1
2154 1972 1971 un
2155 1967 1969 1
2156 1966 1972 un
2157 1974 1973 1
2158 1975 1974 un
2159 1976 1975 1
2160 1970 1973 1
2161 1969 1976 1
2162 1978 1977 un
2163 1979 1978 un
2164 1980 1979 un
2165 1972 1977 un
2166 1971 1980 un
2167 1982 1981 1
2168 1983 1982 un
2169 1984 1983 1
2170 1979 1981 1
2171 1978 1984 1
2172 1986 1985 1
2173 1987 1986 1
2174 1988 1987 un
2175 1983 1985 1
2176 1982 1988 un
2177 1990 1989 un
2178 1991 1990 un
2179 1992 1991 un
2180 1988 1989 un
2181 1987 1992 un
2182 1994 1993 1
2183 1995 1994 1
2184 1996 1995 1
2185 1992 1993 1
2186 1991 1996 1
2187 1998 1997 1
2188 1999 1998 un
2189 1990 1999 un
2190 1996 1997 1
2191 2001 2000 un
2192 2002 2001 un
2193 2003 2002 un
2194 1999 2000 un
2195 1998 2003 un
2196 1956 2004 1
2197 2004 2005 1
2198 1951 2006 1
2199 1955 2007 1
2200 1952 2008 1
2201 1961 2009 1
2202 1962 2010 1
2203 1968 2011 1
2204 1975 2012 1
2205 1974 2013 1
2206 1980 2014 1
2207 1977 2015 1
2208 1984 2016 2
2209 1981 2017 2
2210 2003 2018 1
2211 2002 2019 1
2212 1957 2020 1
2213 1957 2021 1
2214 1960 2022 1
2215 1960 2023 1
2216 1965 2024 1
2217 1973 2025 1
2218 1973 2026 1
2219 1974 2027 1
2220 1975 2028 1
2221 1976 2029 1
2222 1976 2030 1
2223 1985 2031 1
2224 1985 2032 1
2225 1986 2033 1
2226 1986 2034 1
2227 1993 2035 1
2228 1993 2036 1
2229 1994 2037 1
2230 1994 2038 1
2231 1995 2039 1
2232 1995 2040 1
2233 1996 2041 1
2234 1997 2042 1
2235 1997 2043 1
2236 2000 2044 1
2237 2001 2045 1
2238 2004 2046 1
2239 2004 2047 1
2240 2005 2048 1
2241 2005 2049 1
2242 2005 2050 1
2243 2006 2051 1
2244 2006 2052 1
2245 2006 2053 1
2246 2007 2054 1
2247 2007 2055 1
2248 2007 2056 1
2249 2008 2057 1
2250 2008 2058 1
2251 2008 2059 1
2252 2009 2060 1
2253 2009 2061 1
2254 2009 2062 1
2255 2010 2063 1
2256 2010 2064 1
2257 2010 2065 1
2258 2011 2066 1
2259 2012 2067 1
2260 2012 2068 1
2261 2012 2069 1
2262 2013 2070 1
2263 2013 2071 1
2264 2013 2072 1
2265 2014 2073 1
2266 2015 2074 1
2267 2018 2075 1
2268 2018 2076 1
2269 2018 2077 1
2270 2019 2078 1
2271 2019 2079 1
2272 2019 2080 1
2273 2083 2082 un
2274 2084 2083 un
2275 2085 2084 un
2276 2086 2085 un
2277 2081 2082 un
2278 2081 2086 un
2279 2088 2087 1
2280 2089 2088 un
2281 2090 2089 1
2282 2084 2087 1
2283 2083 2090 1
2284 2092 2091 un
2285 2093 2092 un
2286 2094 2093 un
2287 2089 2091 un
2288 2088 2094 un
2289 2096 2095 un
2290 2097 2096 un
2291 2098 2097 un
2292 2094 2095 un
2293 2093 2098 un
2294 2100 2099 1
2295 2101 2100 1
2296 2102 2101 un
2297 2097 2099 1
2298 2096 2102 un
2299 2104 2103 1
2300 2105 2104 un
2301 2106 2105 1
2302 2100 2103 1
2303 2099 2106 1
2304 2108 2107 un
2305 2109 2108 un
2306 2110 2109 un
2307 2102 2107 un
2308 2101 2110 un
2309 2112 2111 1
2310 2113 2112 un
2311 2114 2113 1
2312 2109 2111 1
2313 2108 2114 1
2314 2116 2115 1
2315 2117 2116 1
2316 2118 2117 un
2317 2113 2115 1
2318 2112 2118 un
2319 2120 2119 un
2320 2121 2120 un
2321 2122 2121 un
2322 2118 2119 un
2323 2117 2122 un
2324 2124 2123 1
2325 2125 2124 1
2326 2126 2125 1
2327 2122 2123 1
2328 2121 2126 1
2329 2128 2127 1
2330 2129 2128 un
2331 2120 2129 un
2332 2126 2127 1
2333 2131 2130 un
2334 2132 2131 un
2335 2133 2132 un
2336 2129 2130 un
2337 2128 2133 un
2338 2086 2134 1
2339 2134 2135 1
2340 2081 2136 1
2341 2085 2137 1
2342 2082 2138 1
2343 2091 2139 1
2344 2092 2140 1
2345 2098 2141 1
2346 2105 2142 1
2347 2104 2143 1
2348 2110 2144 1
2349 2107 2145 1
2350 2114 2146 2
2351 2111 2147 2
2352 2133 2148 1
2353 2132 2149 1
2354 2087 2150 1
2355 2087 2151 1
2356 2090 2152 1
2357 2090 2153 1
2358 2095 2154 1
2359 2103 2155 1
2360 2103 2156 1
2361 2104 2157 1
2362 2105 2158 1
2363 2106 2159 1
2364 2106 2160 1
2365 2115 2161 1
2366 2115 2162 1
2367 2116 2163 1
2368 2116 2164 1
2369 2123 2165 1
2370 2123 2166 1
2371 2124 2167 1
2372 2124 2168 1
2373 2125 2169 1
2374 2125 2170 1
2375 2126 2171 1
2376 2127 2172 1
2377 2127 2173 1
2378 2130 2174 1
2379 2131 2175 1
2380 2134 2176 1
2381 2134 2177 1
2382 2135 2178 1
2383 2135 2179 1
2384 2135 2180 1
2385 2136 2181 1
2386 2136 2182 1
2387 2136 2183 1
2388 2137 2184 1
2389 2137 2185 1
2390 2137 2186 1
2391 2138 2187 1
2392 2138 2188 1
2393 2138 2189 1
2394 2139 2190 1
2395 2139 2191 1
2396 2139 2192 1
2397 2140 2193 1
2398 2140 2194 1
2399 2140 2195 1
2400 2141 2196 1
2401 2142 2197 1
2402 2142 2198 1
2403 2142 2199 1
2404 2143 2200 1
2405 2143 2201 1
2406 2143 2202 1
2407 2144 2203 1
2408 2145 2204 1
2409 2148 2205 1
2410 2148 2206 1
2411 2148 2207 1
2412 2149 2208 1
2413 2149 2209 1
2414 2149 2210 1
2415 2213 2212 un
2416 2214 2213 un
2417 2215 2214 un
2418 2216 2215 un
2419 2211 2212 un
2420 2211 2216 un
2421 2218 2217 1
2422 2219 2218 un
2423 2220 2219 1
2424 2214 2217 1
2425 2213 2220 1
2426 2222 2221 un
2427 2223 2222 un
2428 2224 2223 un
2429 2219 2221 un
2430 2218 2224 un
2431 2226 2225 un
2432 2227 2226 un
2433 2228 2227 un
2434 2224 2225 un
2435 2223 2228 un
2436 2230 2229 1
2437 2231 2230 1
2438 2232 2231 un
2439 2227 2229 1
2440 2226 2232 un
2441 2234 2233 1
2442 2235 2234 un
2443 2236 2235 1
2444 2230 2233 1
2445 2229 2236 1
2446 2238 2237 un
2447 2239 2238 un
2448 2240 2239 un
2449 2232 2237 un
2450 2231 2240 un
2451 2242 2241 1
2452 2243 2242 un
2453 2244 2243 1
2454 2239 2241 1
2455 2238 2244 1
2456 2246 2245 1
2457 2247 2246 1
2458 2248 2247 un
2459 2243 2245 1
2460 2242 2248 un
2461 2250 2249 un
2462 2251 2250 un
2463 2252 2251 un
2464 2248 2249 un
2465 2247 2252 un
2466 2254 2253 1
2467 2255 2254 1
2468 2256 2255 1
2469 2252 2253 1
2470 2251 2256 1
2471 2258 2257 1
2472 2259 2258 un
2473 2250 2259 un
2474 2256 2257 1
2475 2261 2260 un
2476 2262 2261 un
2477 2263 2262 un
2478 2259 2260 un
2479 2258 2263 un
2480 2216 2264 1
2481 2264 2265 1
2482 2211 2266 1
2483 2215 2267 1
2484 2212 2268 1
2485 2221 2269 1
2486 2222 2270 1
2487 2228 2271 1
2488 2235 2272 1
2489 2234 2273 1
2490 2240 2274 1
2491 2237 2275 1
2492 2244 2276 2
2493 2241 2277 2
2494 2263 2278 1
2495 2262 2279 1
2496 2217 2280 1
2497 2217 2281 1
2498 2220 2282 1
2499 2220 2283 1
2500 2225 2284 1
2501 2233 2285 1
2502 2233 2286 1
2503 2234 2287 1
2504 2235 2288 1
2505 2236 2289 1
2506 2236 2290 1
2507 2245 2291 1
2508 2245 2292 1
2509 2246 2293 1
2510 2246 2294 1
2511 2253 2295 1
2512 2253 2296 1
2513 2254 2297 1
2514 2254 2298 1
2515 2255 2299 1
2516 2255 2300 1
2517 2256 2301 1
2518 2257 2302 1
2519 2257 2303 1
2520 2260 2304 1
2521 2261 2305 1
2522 2264 2306 1
2523 2264 2307 1
2524 2265 2308 1
2525 2265 2309 1
2526 2265 2310 1
2527 2266 2311 1
2528 2266 2312 1
2529 2266 2313 1
2530 2267 2314 1
2531 2267 2315 1
2532 2267 2316 1
2533 2268 2317 1
2534 2268 2318 1
2535 2268 2319 1
2536 2269 2320 1
2537 2269 2321 1
2538 2269 2322 1
2539 2270 2323 1
2540 2270 2324 1
2541 2270 2325 1
2542 2271 2326 1
2543 2272 2327 1
2544 2272 2328 1
2545 2272 2329 1
2546 2273 2330 1
2547 2273 2331 1
2548 2273 2332 1
2549 2274 2333 1
2550 2275 2334 1
2551 2278 2335 1
2552 2278 2336 1
2553 2278 2337 1
2554 2279 2338 1
2555 2279 2339 1
2556 2279 2340 1
2557 2343 2342 un
2558 2344 2343 un
2559 2345 2344 un
2560 2346 2345 un
2561 2341 2342 un
2562 2341 2346 un
2563 2348 2347 1
2564 2349 2348 un
2565 2350 2349 1
2566 2344 2347 1
2567 2343 2350 1
2568 2352 2351 un
2569 2353 2352 un
2570 2354 2353 un
2571 2349 2351 un
2572 2348 2354 un
2573 2356 2355 un
2574 2357 2356 un
2575 2358 2357 un
2576 2354 2355 un
2577 2353 2358 un
2578 2360 2359 1
2579 2361 2360 1
2580 2362 2361 un
2581 2357 2359 1
2582 2356 2362 un
2583 2364 2363 1
2584 2365 2364 un
2585 2366 2365 1
2586 2360 2363 1
2587 2359 2366 1
2588 2368 2367 un
2589 2369 2368 un
2590 2370 2369 un
2591 2362 2367 un
2592 2361 2370 un
2593 2372 2371 1
2594 2373 2372 un
2595 2374 2373 1
2596 2369 2371 1
2597 2368 2374 1
2598 2376 2375 1
2599 2377 2376 1
2600 2378 2377 un
2601 2373 2375 1
2602 2372 2378 un
2603 2380 2379 un
2604 2381 2380 un
2605 2382 2381 un
2606 2378 2379 un
2607 2377 2382 un
2608 2384 2383 1
2609 2385 2384 1
2610 2386 2385 1
2611 2382 2383 1
2612 2381 2386 1
2613 2388 2387 1
2614 2389 2388 un
2615 2380 2389 un
2616 2386 2387 1
2617 2391 2390 un
2618 2392 2391 un
2619 2393 2392 un
2620 2389 2390 un
2621 2388 2393 un
2622 2346 2394 1
2623 2394 2395 1
2624 2341 2396 1
2625 2345 2397 1
2626 2342 2398 1
2627 2351 2399 1
2628 2352 2400 1
2629 2358 2401 1
2630 2365 2402 1
2631 2364 2403 1
2632 2370 2404 1
2633 2367 2405 1
2634 2374 2406 2
2635 2371 2407 2
2636 2393 2408 1
2637 2392 2409 1
2638 2347 2410 1
2639 2347 2411 1
2640 2350 2412 1
2641 2350 2413 1
2642 2355 2414 1
2643 2363 2415 1
2644 2363 2416 1
2645 2364 2417 1
2646 2365 2418 1
2647 2366 2419 1
2648 2366 2420 1
2649 2375 2421 1
2650 2375 2422 1
2651 2376 2423 1
2652 2376 2424 1
2653 2383 2425 1
2654 2383 2426 1
2655 2384 2427 1
2656 2384 2428 1
2657 2385 2429 1
2658 2385 2430 1
2659 2386 2431 1
2660 2387 2432 1
2661 2387 2433 1
2662 2390 2434 1
2663 2391 2435 1
2664 2394 2436 1
2665 2394 2437 1
2666 2395 2438 1
2667 2395 2439 1
2668 2395 2440 1
2669 2396 2441 1
2670 2396 2442 1
2671 2396 2443 1
2672 2397 2444 1
2673 2397 2445 1
2674 2397 2446 1
2675 2398 2447 1
2676 2398 2448 1
2677 2398 2449 1
2678 2399 2450 1
2679 2399 2451 1
2680 2399 2452 1
2681 2400 2453 1
2682 2400 2454 1
2683 2400 2455 1
2684 2401 2456 1
2685 2402 2457 1
2686 2402 2458 1
2687 2402 2459 1
2688 2403 2460 1
2689 2403 2461 1
2690 2403 2462 1
2691 2404 2463 1
2692 2405 2464 1
2693 2408 2465 1
2694 2408 2466 1
2695 2408 2467 1
2696 2409 2468 1
2697 2409 2469 1
2698 2409 2470 1
2699 2473 2472 un
2700 2474 2473 un
2701 2475 2474 un
2702 2476 2475 un
2703 2471 2472 un
2704 2471 2476 un
2705 2478 2477 1
2706 2479 2478 un
2707 2480 2479 1
2708 2474 2477 1
2709 2473 2480 1
2710 2482 2481 un
2711 2483 2482 un
2712 2484 2483 un
2713 2479 2481 un
2714 2478 2484 un
2715 2486 2485 un
2716 2487 2486 un
2717 2488 2487 un
2718 2484 2485 un
2719 2483 2488 un
2720 2490 2489 1
2721 2491 2490 1
2722 2492 2491 un
2723 2487 2489 1
2724 2486 2492 un
2725 2494 2493 1
2726 2495 2494 un
2727 2496 2495 1
2728 2490 2493 1
2729 2489 2496 1
2730 2498 2497 un
2731 2499 2498 un
2732 2500 2499 un
2733 2492 2497 un
2734 2491 2500 un
2735 2502 2501 1
2736 2503 2502 un
2737 2504 2503 1
2738 2499 2501 1
2739 2498 2504 1
2740 2506 2505 1
2741 2507 2506 1
2742 2508 2507 un
2743 2503 2505 1
2744 2502 2508 un
2745 2510 2509 un
2746 2511 2510 un
2747 2512 2511 un
2748 2508 2509 un
2749 2507 2512 un
2750 2514 2513 1
2751 2515 2514 1
2752 2516 2515 1
2753 2512 2513 1
2754 2511 2516 1
2755 2518 2517 1
2756 2519 2518 un
2757 2510 2519 un
2758 2516 2517 1
2759 2521 2520 un
2760 2522 2521 un
2761 2523 2522 un
2762 2519 2520 un
2763 2518 2523 un
2764 2476 2524 1
2765 2524 2525 1
2766 2471 2526 1
2767 2475 2527 1
2768 2472 2528 1
2769 2481 2529 1
2770 2482 2530 1
2771 2488 2531 1
2772 2495 2532 1
2773 2494 2533 1
2774 2500 2534 1
2775 2497 2535 1
2776 2504 2536 2
2777 2501 2537 2
2778 2523 2538 1
2779 2522 2539 1
2780 2477 2540 1
2781 2477 2541 1
2782 2480 2542 1
2783 2480 2543 1
2784 2485 2544 1
2785 2493 2545 1
2786 2493 2546 1
2787 2494 2547 1
2788 2495 2548 1
2789 2496 2549 1
2790 2496 2550 1
2791 2505 2551 1
2792 2505 2552 1
2793 2506 2553 1
2794 2506 2554 1
2795 2513 2555 1
2796 2513 2556 1
2797 2514 2557 1
2798 2514 2558 1
2799 2515 2559 1
2800 2515 2560 1
2801 2516 2561 1
2802 2517 2562 1
2803 2517 2563 1
2804 2520 2564 1
2805 2521 2565 1
2806 2524 2566 1
2807 2524 2567 1
2808 2525 2568 1
2809 2525 2569 1
2810 2525 2570 1
2811 2526 2571 1
2812 2526 2572 1
2813 2526 2573 1
2814 2527 2574 1
2815 2527 2575 1
2816 2527 2576 1
2817 2528 2577 1
2818 2528 2578 1
2819 2528 2579 1
2820 2529 2580 1
2821 2529 2581 1
2822 2529 2582 1
2823 2530 2583 1
2824 2530 2584 1
2825 2530 2585 1
2826 2531 2586 1
2827 2532 2587 1
2828 2532 2588 1
2829 2532 2589 1
2830 2533 2590 1
2831 2533 2591 1
2832 2533 2592 1
2833 2534 2593 1
2834 2535 2594 1
2835 2538 2595 1
2836 2538 2596 1
2837 2538 2597 1
2838 2539 2598 1
2839 2539 2599 1
2840 2539 2600 1
2841 2601 2602 am
2842 2602 2603 am
2843 2603 2604 am
2844 2604 2605 am
2845 2605 2606 am
2846 2606 2601 am
2847 2607 2608 am
2848 2608 2609 1
2849 2603 2609 1
2850 2604 2607 1
2851 2610 2611 am
2852 2611 2612 am
2853 2612 2613 am
2854 2607 2613 am
2855 2608 2610 am
2856 2614 2615 1
2857 2615 2616 1
2858 2616 2617 1
2859 2612 2617 1
2860 2613 2614 1
2861 2618 2619 am
2862 2619 2620 am
2863 2611 2620 am
2864 2617 2618 am
2865 2621 2622 am
2866 2622 2623 am
2867 2610 2623 am
2868 2620 2621 am
2869 2624 2625 1
2870 2625 2626 am
2871 2626 2627 1
2872 2618 2627 1
2873 2619 2624 1
2874 2628 2629 am
2875 2629 2630 am
2876 2630 2631 am
2877 2625 2631 am
2878 2626 2628 am
2879 2632 2633 1
2880 2633 2634 1
2881 2634 2635 1
2882 2629 2635 1
2883 2630 2632 1
2884 2636 2637 am
2885 2637 2638 am
2886 2631 2636 am
2887 2632 2638 am
2888 2639 2640 1
2889 2640 2641 am
2890 2621 2641 am
2891 2622 2639 1
2892 2642 2643 am
2893 2643 2644 am
2894 2644 2645 am
2895 2640 2645 am
2896 2641 2642 am
2897 2646 2647 am
2898 2647 2648 am
2899 2648 2649 am
2900 2644 2649 am
2901 2645 2646 am
2902 2650 2651 am
2903 2651 2652 am
2904 2643 2652 am
2905 2649 2650 am
2906 2601 2653 1
2907 2606 2654 1
2908 2623 2655 1
2909 2647 2656 1
2910 2656 2657 1
2911 2637 2658 1
2912 2628 2659 1
2913 2650 2660 1
2914 2602 2661 1
2915 2605 2662 1
2916 2609 2663 1
2917 2609 2664 1
2918 2614 2665 1
2919 2614 2666 1
2920 2615 2667 1
2921 2615 2668 1
2922 2616 2669 1
2923 2616 2670 1
2924 2624 2671 1
2925 2627 2672 1
2926 2633 2673 1
2927 2633 2674 1
2928 2634 2675 1
2929 2634 2676 1
2930 2635 2677 1
2931 2635 2678 1
2932 2636 2679 1
2933 2638 2680 1
2934 2639 2681 1
2935 2639 2682 1
2936 2642 2683 1
2937 2646 2684 1
2938 2648 2685 1
2939 2651 2686 1
2940 2652 2687 1
2941 2653 2688 1
2942 2654 2689 1
2943 2654 2690 1
2944 2654 2691 1
2945 2655 2692 1
2946 2656 2693 1
2947 2657 2694 1
2948 2657 2695 1
2949 2657 2696 1
2950 2658 2697 1
2951 2659 2698 1
2952 2660 2699 1
2953 2624 2700 1
2954 2627 2701 1
2955 2656 2702 1
2956 2703 2704 am
2957 2704 2705 am
2958 2705 2706 am
2959 2706 2707 am
2960 2707 2708 am
2961 2708 2703 am
2962 2709 2710 am
2963 2710 2711 1
2964 2705 2711 1
2965 2706 2709 1
2966 2712 2713 am
2967 2713 2714 am
2968 2714 2715 am
2969 2709 2715 am
2970 2710 2712 am
2971 2716 2717 1
2972 2717 2718 1
2973 2718 2719 1
2974 2714 2719 1
2975 2715 2716 1
2976 2720 2721 am
2977 2721 2722 am
2978 2713 2722 am
2979 2719 2720 am
2980 2723 2724 am
2981 2724 2725 am
2982 2712 2725 am
2983 2722 2723 am
2984 2726 2727 1
2985 2727 2728 am
2986 2728 2729 1
2987 2720 2729 1
2988 2721 2726 1
2989 2730 2731 am
2990 2731 2732 am
2991 2732 2733 am
2992 2727 2733 am
2993 2728 2730 am
2994 2734 2735 1
2995 2735 2736 1
2996 2736 2737 1
2997 2731 2737 1
2998 2732 2734 1
2999 2738 2739 am
3000 2739 2740 am
3001 2733 2738 am
3002 2734 2740 am
3003 2741 2742 1
3004 2742 2743 am
3005 2723 2743 am
3006 2724 2741 1
3007 2744 2745 am
3008 2745 2746 am
3009 2746 2747 am
3010 2742 2747 am
3011 2743 2744 am
3012 2748 2749 am
3013 2749 2750 am
3014 2750 2751 am
3015 2746 2751 am
3016 2747 2748 am
3017 2752 2753 am
3018 2753 2754 am
3019 2745 2754 am
3020 2751 2752 am
3021 2703 2755 1
3022 2708 2756 1
3023 2725 2757 1
3024 2749 2758 1
3025 2758 2759 1
3026 2739 2760 1
3027 2730 2761 1
3028 2752 2762 1
3029 2704 2763 1
3030 2707 2764 1
3031 2711 2765 1
3032 2711 2766 1
3033 2716 2767 1
3034 2716 2768 1
3035 2717 2769 1
3036 2717 2770 1
3037 2718 2771 1
3038 2718 2772 1
3039 2726 2773 1
3040 2729 2774 1
3041 2735 2775 1
3042 2735 2776 1
3043 2736 2777 1
3044 2736 2778 1
3045 2737 2779 1
3046 2737 2780 1
3047 2738 2781 1
3048 2740 2782 1
3049 2741 2783 1
3050 2741 2784 1
3051 2744 2785 1
3052 2748 2786 1
3053 2750 2787 1
3054 2753 2788 1
3055 2754 2789 1
3056 2755 2790 1
3057 2756 2791 1
3058 2756 2792 1
3059 2756 2793 1
3060 2757 2794 1
3061 2758 2795 1
3062 2759 2796 1
3063 2759 2797 1
3064 2759 2798 1
3065 2760 2799 1
3066 2761 2800 1
3067 2762 2801 1
3068 2726 2802 1
3069 2729 2803 1
3070 2758 2804 1
3071 2805 2806 am
3072 2806 2807 am
3073 2807 2808 am
3074 2808 2809 am
3075 2809 2810 am
3076 2810 2805 am
3077 2811 2812 am
3078 2812 2813 1
3079 2807 2813 1
3080 2808 2811 1
3081 2814 2815 am
3082 2815 2816 am
3083 2816 2817 am
3084 2811 2817 am
3085 2812 2814 am
3086 2818 2819 1
3087 2819 2820 1
3088 2820 2821 1
3089 2816 2821 1
3090 2817 2818 1
3091 2822 2823 am
3092 2823 2824 am
3093 2815 2824 am
3094 2821 2822 am
3095 2825 2826 am
3096 2826 2827 am
3097 2814 2827 am
3098 2824 2825 am
3099 2828 2829 1
3100 2829 2830 am
3101 2830 2831 1
3102 2822 2831 1
3103 2823 2828 1
3104 2832 2833 am
3105 2833 2834 am
3106 2834 2835 am
3107 2829 2835 am
3108 2830 2832 am
3109 2836 2837 1
3110 2837 2838 1
3111 2838 2839 1
3112 2833 2839 1
3113 2834 2836 1
3114 2840 2841 am
3115 2841 2842 am
3116 2835 2840 am
3117 2836 2842 am
3118 2843 2844 1
3119 2844 2845 am
3120 2825 2845 am
3121 2826 2843 1
3122 2846 2847 am
3123 2847 2848 am
3124 2848 2849 am
3125 2844 2849 am
3126 2845 2846 am
3127 2850 2851 am
3128 2851 2852 am
3129 2852 2853 am
3130 2848 2853 am
3131 2849 2850 am
3132 2854 2855 am
3133 2855 2856 am
3134 2847 2856 am
3135 2853 2854 am
3136 2805 2857 1
3137 2810 2858 1
3138 2827 2859 1
3139 2851 2860 1
3140 2860 2861 1
3141 2841 2862 1
3142 2832 2863 1
3143 2854 2864 1
3144 2806 2865 1
3145 2809 2866 1
3146 2813 2867 1
3147 2813 2868 1
3148 2818 2869 1
3149 2818 2870 1
3150 2819 2871 1
3151 2819 2872 1
3152 2820 2873 1
3153 2820 2874 1
3154 2828 2875 1
3155 2831 2876 1
3156 2837 2877 1
3157 2837 2878 1
3158 2838 2879 1
3159 2838 2880 1
3160 2839 2881 1
3161 2839 2882 1
3162 2840 2883 1
3163 2842 2884 1
3164 2843 2885 1
3165 2843 2886 1
3166 2846 2887 1
3167 2850 2888 1
3168 2852 2889 1
3169 2855 2890 1
3170 2856 2891 1
3171 2857 2892 1
3172 2858 2893 1
3173 2858 2894 1
3174 2858 2895 1
3175 2859 2896 1
3176 2860 2897 1
3177 2861 2898 1
3178 2861 2899 1
3179 2861 2900 1
3180 2862 2901 1
3181 2863 2902 1
3182 2864 2903 1
3183 2828 2904 1
3184 2831 2905 1
3185 2860 2906 1
3186 2907 2908 am
3187 2908 2909 am
3188 2909 2910 am
3189 2910 2911 am
3190 2911 2912 am
3191 2912 2907 am
3192 2913 2914 am
3193 2914 2915 1
3194 2909 2915 1
3195 2910 2913 1
3196 2916 2917 am
3197 2917 2918 am
3198 2918 2919 am
3199 2913 2919 am
3200 2914 2916 am
3201 2920 2921 1
3202 2921 2922 1
3203 2922 2923 1
3204 2918 2923 1
3205 2919 2920 1
3206 2924 2925 am
3207 2925 2926 am
3208 2917 2926 am
3209 2923 2924 am
3210 2927 2928 am
3211 2928 2929 am
3212 2916 2929 am
3213 2926 2927 am
3214 2930 2931 1
3215 2931 2932 am
3216 2932 2933 1
3217 2924 2933 1
3218 2925 2930 1
3219 2934 2935 am
3220 2935 2936 am
3221 2936 2937 am
3222 2931 2937 am
3223 2932 2934 am
3224 2938 2939 1
3225 2939 2940 1
3226 2940 2941 1
3227 2935 2941 1
3228 2936 2938 1
3229 2942 2943 am
3230 2943 2944 am
3231 2937 2942 am
3232 2938 2944 am
3233 2945 2946 1
3234 2946 2947 am
3235 2927 2947 am
3236 2928 2945 1
3237 2948 2949 am
3238 2949 2950 am
3239 2950 2951 am
3240 2946 2951 am
3241 2947 2948 am
3242 2952 2953 am
3243 2953 2954 am
3244 2954 2955 am
3245 2950 2955 am
3246 2951 2952 am
3247 2956 2957 am
3248 2957 2958 am
3249 2949 2958 am
3250 2955 2956 am
3251 2907 2959 1
3252 2912 2960 1
3253 2929 2961 1
3254 2953 2962 1
3255 2962 2963 1
3256 2943 2964 1
3257 2934 2965 1
3258 2956 2966 1
3259 2908 2967 1
3260 2911 2968 1
3261 2915 2969 1
3262 2915 2970 1
3263 2920 2971 1
3264 2920 2972 1
3265 2921 2973 1
3266 2921 2974 1
3267 2922 2975 1
3268 2922 2976 1
3269 2930 2977 1
3270 2933 2978 1
3271 2939 2979 1
3272 2939 2980 1
3273 2940 2981 1
3274 2940 2982 1
3275 2941 2983 1
3276 2941 2984 1
3277 2942 2985 1
3278 2944 2986 1
3279 2945 2987 1
3280 2945 2988 1
3281 2948 2989 1
3282 2952 2990 1
3283 2954 2991 1
3284 2957 2992 1
3285 2958 2993 1
3286 2959 2994 1
3287 2960 2995 1
3288 2960 2996 1
3289 2960 2997 1
3290 2961 2998 1
3291 2962 2999 1
3292 2963 3000 1
3293 2963 3001 1
3294 2963 3002 1
3295 2964 3003 1
3296 2965 3004 1
3297 2966 3005 1
3298 2930 3006 1
3299 2933 3007 1
3300 2962 3008 1
3301 3009 3010 am
3302 3010 3011 am
3303 3011 3012 am
3304 3012 3013 am
3305 3013 3014 am
3306 3014 3009 am
3307 3015 3016 am
3308 3016 3017 1
3309 3011 3017 1
3310 3012 3015 1
3311 3018 3019 am
3312 3019 3020 am
3313 3020 3021 am
3314 3015 3021 am
3315 3016 3018 am
3316 3022 3023 1
3317 3023 3024 1
3318 3024 3025 1
3319 3020 3025 1
3320 3021 3022 1
3321 3026 3027 am
3322 3027 3028 am
3323 3019 3028 am
3324 3025 3026 am
3325 3029 3030 am
3326 3030 3031 am
3327 3018 3031 am
3328 3028 3029 am
3329 3032 3033 1
3330 3033 3034 am
3331 3034 3035 1
3332 3026 3035 1
3333 3027 3032 1
3334 3036 3037 am
3335 3037 3038 am
3336 3038 3039 am
3337 3033 3039 am
3338 3034 3036 am
3339 3040 3041 1
3340 3041 3042 1
3341 3042 3043 1
3342 3037 3043 1
3343 3038 3040 1
3344 3044 3045 am
3345 3045 3046 am
3346 3039 3044 am
3347 3040 3046 am
3348 3047 3048 1
3349 3048 3049 am
3350 3029 3049 am
3351 3030 3047 1
3352 3050 3051 am
3353 3051 3052 am
3354 3052 3053 am
3355 3048 3053 am
3356 3049 3050 am
3357 3054 3055 am
3358 3055 3056 am
3359 3056 3057 am
3360 3052 3057 am
3361 3053 3054 am
3362 3058 3059 am
3363 3059 3060 am
3364 3051 3060 am
3365 3057 3058 am
3366 3009 3061 1
3367 3014 3062 1
3368 3031 3063 1
3369 3055 3064 1
3370 3064 3065 1
3371 3045 3066 1
3372 3036 3067 1
3373 3058 3068 1
3374 3010 3069 1
3375 3013 3070 1
3376 3017 3071 1
3377 3017 3072 1
3378 3022 3073 1
3379 3022 3074 1
3380 3023 3075 1
3381 3023 3076 1
3382 3024 3077 1
3383 3024 3078 1
3384 3032 3079 1
3385 3035 3080 1
3386 3041 3081 1
3387 3041 3082 1
3388 3042 3083 1
3389 3042 3084 1
3390 3043 3085 1
3391 3043 3086 1
3392 3044 3087 1
3393 3046 3088 1
3394 3047 3089 1
3395 3047 3090 1
3396 3050 3091 1
3397 3054 3092 1
3398 3056 3093 1
3399 3059 3094 1
3400 3060 3095 1
3401 3061 3096 1
3402 3062 3097 1
3403 3062 3098 1
3404 3062 3099 1
3405 3063 3100 1
3406 3064 3101 1
3407 3065 3102 1
3408 3065 3103 1
3409 3065 3104 1
3410 3066 3105 1
3411 3067 3106 1
3412 3068 3107 1
3413 3032 3108 1
3414 3035 3109 1
3415 3064 3110 1
3416 3111 3112 am
3417 3112 3113 am
3418 3113 3114 am
3419 3114 3115 am
3420 3115 3116 am
3421 3116 3111 am
3422 3117 3118 am
3423 3118 3119 1
3424 3113 3119 1
3425 3114 3117 1
3426 3120 3121 am
3427 3121 3122 am
3428 3122 3123 am
3429 3117 3123 am
3430 3118 3120 am
3431 3124 3125 1
3432 3125 3126 1
3433 3126 3127 1
3434 3122 3127 1
3435 3123 3124 1
3436 3128 3129 am
3437 3129 3130 am
3438 3121 3130 am
3439 3127 3128 am
3440 3131 3132 am
3441 3132 3133 am
3442 3120 3133 am
3443 3130 3131 am
3444 3134 3135 1
3445 3135 3136 am
3446 3136 3137 1
3447 3128 3137 1
3448 3129 3134 1
3449 3138 3139 am
3450 3139 3140 am
3451 3140 3141 am
3452 3135 3141 am
3453 3136 3138 am
3454 3142 3143 1
3455 3143 3144 1
3456 3144 3145 1
3457 3139 3145 1
3458 3140 3142 1
3459 3146 3147 am
3460 3147 3148 am
3461 3141 3146 am
3462 3142 3148 am
3463 3149 3150 1
3464 3150 3151 am
3465 3131 3151 am
3466 3132 3149 1
3467 3152 3153 am
3468 3153 3154 am
3469 3154 3155 am
3470 3150 3155 am
3471 3151 3152 am
3472 3156 3157 am
3473 3157 3158 am
3474 3158 3159 am
3475 3154 3159 am
3476 3155 3156 am
3477 3160 3161 am
3478 3161 3162 am
3479 3153 3162 am
3480 3159 3160 am
3481 3111 3163 1
3482 3116 3164 1
3483 3133 3165 1
3484 3157 3166 1
3485 3166 3167 1
3486 3147 3168 1
3487 3138 3169 1
3488 3160 3170 1
3489 3112 3171 1
3490 3115 3172 1
3491 3119 3173 1
3492 3119 3174 1
3493 3124 3175 1
3494 3124 3176 1
3495 3125 3177 1
3496 3125 3178 1
3497 3126 3179 1
3498 3126 3180 1
3499 3134 3181 1
3500 3137 3182 1
3501 3143 3183 1
3502 3143 3184 1
3503 3144 3185 1
3504 3144 3186 1
3505 3145 3187 1
3506 3145 3188 1
3507 3146 3189 1
3508 3148 3190 1
3509 3149 3191 1
3510 3149 3192 1
3511 3152 3193 1
3512 3156 3194 1
3513 3158 3195 1
3514 3161 3196 1
3515 3162 3197 1
3516 3163 3198 1
3517 3164 3199 1
3518 3164 3200 1
3519 3164 3201 1
3520 3165 3202 1
3521 3166 3203 1
3522 3167 3204 1
3523 3167 3205 1
3524 3167 3206 1
3525 3168 3207 1
3526 3169 3208 1
3527 3170 3209 1
3528 3134 3210 1
3529 3137 3211 1
3530 3166 3212 1
3531 3213 3214 am
3532 3214 3215 am
3533 3215 3216 am
3534 3216 3217 am
3535 3217 3218 am
3536 3218 3213 am
3537 3219 3220 am
3538 3220 3221 1
3539 3215 3221 1
3540 3216 3219 1
3541 3222 3223 am
3542 3223 3224 am
3543 3224 3225 am
3544 3219 3225 am
3545 3220 3222 am
3546 3226 3227 1
3547 3227 3228 1
3548 3228 3229 1
3549 3224 3229 1
3550 3225 3226 1
3551 3230 3231 am
3552 3231 3232 am
3553 3223 3232 am
3554 3229 3230 am
3555 3233 3234 am
3556 3234 3235 am
3557 3222 3235 am
3558 3232 3233 am
3559 3236 3237 1
3560 3237 3238 am
3561 3238 3239 1
3562 3230 3239 1
3563 3231 3236 1
3564 3240 3241 am
3565 3241 3242 am
3566 3242 3243 am
3567 3237 3243 am
3568 3238 3240 am
3569 3244 3245 1
3570 3245 3246 1
3571 3246 3247 1
3572 3241 3247 1
3573 3242 3244 1
3574 3248 3249 am
3575 3249 3250 am
3576 3243 3248 am
3577 3244 3250 am
3578 3251 3252 1
3579 3252 3253 am
3580 3233 3253 am
3581 3234 3251 1
3582 3254 3255 am
3583 3255 3256 am
3584 3256 3257 am
3585 3252 3257 am
3586 3253 3254 am
3587 3258 3259 am
3588 3259 3260 am
3589 3260 3261 am
3590 3256 3261 am
3591 3257 3258 am
3592 3262 3263 am
3593 3263 3264 am
3594 3255 3264 am
3595 3261 3262 am
3596 3213 3265 1
3597 3218 3266 1
3598 3235 3267 1
3599 3259 3268 1
3600 3268 3269 1
3601 3249 3270 1
3602 3240 3271 1
3603 3262 3272 1
3604 3214 3273 1
3605 3217 3274 1
3606 3221 3275 1
3607 3221 3276 1
3608 3226 3277 1
3609 3226 3278 1
3610 3227 3279 1
3611 3227 3280 1
3612 3228 3281 1
3613 3228 3282 1
3614 3236 3283 1
3615 3239 3284 1
3616 3245 3285 1
3617 3245 3286 1
3618 3246 3287 1
3619 3246 3288 1
3620 3247 3289 1
3621 3247 3290 1
3622 3248 3291 1
3623 3250 3292 1
3624 3251 3293 1
3625 3251 3294 1
3626 3254 3295 1
3627 3258 3296 1
3628 3260 3297 1
3629 3263 3298 1
3630 3264 3299 1
3631 3265 3300 1
3632 3266 3301 1
3633 3266 3302 1
3634 3266 3303 1
3635 3267 3304 1
3636 3268 3305 1
3637 3269 3306 1
3638 3269 3307 1
3639 3269 3308 1
3640 3270 3309 1
3641 3271 3310 1
3642 3272 3311 1
3643 3236 3312 1
3644 3239 3313 1
3645 3268 3314 1
3646 3315 3316 am
3647 3316 3317 am
3648 3317 3318 am
3649 3318 3319 am
3650 3319 3320 am
3651 3320 3315 am
3652 3321 3322 am
3653 3322 3323 1
3654 3317 3323 1
3655 3318 3321 1
3656 3324 3325 am
3657 3325 3326 am
3658 3326 3327 am
3659 3321 3327 am
3660 3322 3324 am
3661 3328 3329 1
3662 3329 3330 1
3663 3330 3331 1
3664 3326 3331 1
3665 3327 3328 1
3666 3332 3333 am
3667 3333 3334 am
3668 3325 3334 am
3669 3331 3332 am
3670 3335 3336 am
3671 3336 3337 am
3672 3324 3337 am
3673 3334 3335 am
3674 3338 3339 1
3675 3339 3340 am
3676 3340 3341 1
3677 3332 3341 1
3678 3333 3338 1
3679 3342 3343 am
3680 3343 3344 am
3681 3344 3345 am
3682 3339 3345 am
3683 3340 3342 am
3684 3346 3347 1
3685 3347 3348 1
3686 3348 3349 1
3687 3343 3349 1
3688 3344 3346 1
3689 3350 3351 am
3690 3351 3352 am
3691 3345 3350 am
3692 3346 3352 am
3693 3353 3354 1
3694 3354 3355 am
3695 3335 3355 am
3696 3336 3353 1
3697 3356 3357 am
3698 3357 3358 am
3699 3358 3359 am
3700 3354 3359 am
3701 3355 3356 am
3702 3360 3361 am
3703 3361 3362 am
3704 3362 3363 am
3705 3358 3363 am
3706 3359 3360 am
3707 3364 3365 am
3708 3365 3366 am
3709 3357 3366 am
3710 3363 3364 am
3711 3315 3367 1
3712 3320 3368 1
3713 3337 3369 1
3714 3361 3370 1
3715 3370 3371 1
3716 3351 3372 1
3717 3342 3373 1
3718 3364 3374 1
3719 3316 3375 1
3720 3319 3376 1
3721 3323 3377 1
3722 3323 3378 1
3723 3328 3379 1
3724 3328 3380 1
3725 3329 3381 1
3726 3329 3382 1
3727 3330 3383 1
3728 3330 3384 1
3729 3338 3385 1
3730 3341 3386 1
3731 3347 3387 1
3732 3347 3388 1
3733 3348 3389 1
3734 3348 3390 1
3735 3349 3391 1
3736 3349 3392 1
3737 3350 3393 1
3738 3352 3394 1
3739 3353 3395 1
3740 3353 3396 1
3741 3356 3397 1
3742 3360 3398 1
3743 3362 3399 1
3744 3365 3400 1
3745 3366 3401 1
3746 3367 3402 1
3747 3368 3403 1
3748 3368 3404 1
3749 3368 3405 1
3750 3369 3406 1
3751 3370 3407 1
3752 3371 3408 1
3753 3371 3409 1
3754 3371 3410 1
3755 3372 3411 1
3756 3373 3412 1
3757 3374 3413 1
3758 3338 3414 1
3759 3341 3415 1
3760 3370 3416 1
3761 3417 3418 am
3762 3418 3419 am
3763 3419 3420 am
3764 3420 3421 am
3765 3421 3422 am
3766 3422 3417 am
3767 3423 3424 am
3768 3424 3425 1
3769 3419 3425 1
3770 3420 3423 1
3771 3426 3427 am
3772 3427 3428 am
3773 3428 3429 am
3774 3423 3429 am
3775 3424 3426 am
3776 3430 3431 1
3777 3431 3432 1
3778 3432 3433 1
3779 3428 3433 1
3780 3429 3430 1
3781 3434 3435 am
3782 3435 3436 am
3783 3427 3436 am
3784 3433 3434 am
3785 3437 3438 am
3786 3438 3439 am
3787 3426 3439 am
3788 3436 3437 am
3789 3440 3441 1
3790 3441 3442 am
3791 3442 3443 1
3792 3434 3443 1
3793 3435 3440 1
3794 3444 3445 am
3795 3445 3446 am
3796 3446 3447 am
3797 3441 3447 am
3798 3442 3444 am
3799 3448 3449 1
3800 3449 3450 1
3801 3450 3451 1
3802 3445 3451 1
3803 3446 3448 1
3804 3452 3453 am
3805 3453 3454 am
3806 3447 3452 am
3807 3448 3454 am
3808 3455 3456 1
3809 3456 3457 am
3810 3437 3457 am
3811 3438 3455 1
3812 3458 3459 am
3813 3459 3460 am
3814 3460 3461 am
3815 3456 3461 am
3816 3457 3458 am
3817 3462 3463 am
3818 3463 3464 am
3819 3464 3465 am
3820 3460 3465 am
3821 3461 3462 am
3822 3466 3467 am
3823 3467 3468 am
3824 3459 3468 am
3825 3465 3466 am
3826 3417 3469 1
3827 3422 3470 1
3828 3439 3471 1
3829 3463 3472 1
3830 3472 3473 1
3831 3453 3474 1
3832 3444 3475 1
3833 3466 3476 1
3834 3418 3477 1
3835 3421 3478 1
3836 3425 3479 1
3837 3425 3480 1
3838 3430 3481 1
3839 3430 3482 1
3840 3431 3483 1
3841 3431 3484 1
3842 3432 3485 1
3843 3432 3486 1
3844 3440 3487 1
3845 3443 3488 1
3846 3449 3489 1
3847 3449 3490 1
3848 3450 3491 1
3849 3450 3492 1
3850 3451 3493 1
3851 3451 3494 1
3852 3452 3495 1
3853 3454 3496 1
3854 3455 3497 1
3855 3455 3498 1
3856 3458 3499 1
3857 3462 3500 1
3858 3464 3501 1
3859 3467 3502 1
3860 3468 3503 1
3861 3469 3504 1
3862 3470 3505 1
3863 3470 3506 1
3864 3470 3507 1
3865 3471 3508 1
3866 3472 3509 1
3867 3473 3510 1
3868 3473 3511 1
3869 3473 3512 1
3870 3474 3513 1
3871 3475 3514 1
3872 3476 3515 1
3873 3440 3516 1
3874 3443 3517 1
3875 3472 3518 1
3876 3519 3520 am
3877 3520 3521 am
3878 3521 3522 am
3879 3522 3523 am
3880 3523 3524 am
3881 3524 3519 am
3882 3525 3526 am
3883 3526 3527 1
3884 3521 3527 1
3885 3522 3525 1
3886 3528 3529 am
3887 3529 3530 am
3888 3530 3531 am
3889 3525 3531 am
3890 3526 3528 am
3891 3532 3533 1
3892 3533 3534 1
3893 3534 3535 1
3894 3530 3535 1
3895 3531 3532 1
3896 3536 3537 am
3897 3537 3538 am
3898 3529 3538 am
3899 3535 3536 am
3900 3539 3540 am
3901 3540 3541 am
3902 3528 3541 am
3903 3538 3539 am
3904 3542 3543 1
3905 3543 3544 am
3906 3544 3545 1
3907 3536 3545 1
3908 3537 3542 1
3909 3546 3547 am
3910 3547 3548 am
3911 3548 3549 am
3912 3543 3549 am
3913 3544 3546 am
3914 3550 3551 1
3915 3551 3552 1
3916 3552 3553 1
3917 3547 3553 1
3918 3548 3550 1
3919 3554 3555 am
3920 3555 3556 am
3921 3549 3554 am
3922 3550 3556 am
3923 3557 3558 1
3924 3558 3559 am
3925 3539 3559 am
3926 3540 3557 1
3927 3560 3561 am
3928 3561 3562 am
3929 3562 3563 am
3930 3558 3563 am
3931 3559 3560 am
3932 3564 3565 am
3933 3565 3566 am
3934 3566 3567 am
3935 3562 3567 am
3936 3563 3564 am
3937 3568 3569 am
3938 3569 3570 am
3939 3561 3570 am
3940 3567 3568 am
3941 3519 3571 1
3942 3524 3572 1
3943 3541 3573 1
3944 3565 3574 1
3945 3574 3575 1
3946 3555 3576 1
3947 3546 3577 1
3948 3568 3578 1
3949 3520 3579 1
3950 3523 3580 1
3951 3527 3581 1
3952 3527 3582 1
3953 3532 3583 1
3954 3532 3584 1
3955 3533 3585 1
3956 3533 3586 1
3957 3534 3587 1
3958 3534 3588 1
3959 3542 3589 1
3960 3545 3590 1
3961 3551 3591 1
3962 3551 3592 1
3963 3552 3593 1
3964 3552 3594 1
3965 3553 3595 1
3966 3553 3596 1
3967 3554 3597 1
3968 3556 3598 1
3969 3557 3599 1
3970 3557 3600 1
3971 3560 3601 1
3972 3564 3602 1
3973 3566 3603 1
3974 3569 3604 1
3975 3570 3605 1
3976 3571 3606 1
3977 3572 3607 1
3978 3572 3608 1
3979 3572 3609 1
3980 3573 3610 1
3981 3574 3611 1
3982 3575 3612 1
3983 3575 3613 1
3984 3575 3614 1
3985 3576 3615 1
3986 3577 3616 1
3987 3578 3617 1
3988 3542 3618 1
3989 3545 3619 1
3990 3574 3620 1
3991 3621 3622 am
3992 3622 3623 am
3993 3623 3624 am
3994 3624 3625 am
3995 3625 3626 am
3996 3626 3621 am
3997 3627 3628 am
3998 3628 3629 1
3999 3623 3629 1
4000 3624 3627 1
4001 3630 3631 am
4002 3631 3632 am
4003 3632 3633 am
4004 3627 3633 am
4005 3628 3630 am
4006 3634 3635 1
4007 3635 3636 1
4008 3636 3637 1
4009 3632 3637 1
4010 3633 3634 1
4011 3638 3639 am
4012 3639 3640 am
4013 3631 3640 am
4014 3637 3638 am
4015 3641 3642 am
4016 3642 3643 am
4017 3630 3643 am
4018 3640 3641 am
4019 3644 3645 1
4020 3645 3646 am
4021 3646 3647 1
4022 3638 3647 1
4023 3639 3644 1
4024 3648 3649 am
4025 3649 3650 am
4026 3650 3651 am
4027 3645 3651 am
4028 3646 3648 am
4029 3652 3653 1
4030 3653 3654 1
4031 3654 3655 1
4032 3649 3655 1
4033 3650 3652 1
4034 3656 3657 am
4035 3657 3658 am
4036 3651 3656 am
4037 3652 3658 am
4038 3659 3660 1
4039 3660 3661 am
4040 3641 3661 am
4041 3642 3659 1
4042 3662 3663 am
4043 3663 3664 am
4044 3664 3665 am
4045 3660 3665 am
4046 3661 3662 am
4047 3666 3667 am
4048 3667 3668 am
4049 3668 3669 am
4050 3664 3669 am
4051 3665 3666 am
4052 3670 3671 am
4053 3671 3672 am
4054 3663 3672 am
4055 3669 3670 am
4056 3621 3673 1
4057 3626 3674 1
4058 3643 3675 1
4059 3667 3676 1
4060 3676 3677 1
4061 3657 3678 1
4062 3648 3679 1
4063 3670 3680 1
4064 3622 3681 1
4065 3625 3682 1
4066 3629 3683 1
4067 3629 3684 1
4068 3634 3685 1
4069 3634 3686 1
4070 3635 3687 1
4071 3635 3688 1
4072 3636 3689 1
4073 3636 3690 1
4074 3644 3691 1
4075 3647 3692 1
4076 3653 3693 1
4077 3653 3694 1
4078 3654 3695 1
4079 3654 3696 1
4080 3655 3697 1
4081 3655 3698 1
4082 3656 3699 1
4083 3658 3700 1
4084 3659 3701 1
4085 3659 3702 1
4086 3662 3703 1
4087 3666 3704 1
4088 3668 3705 1
4089 3671 3706 1
4090 3672 3707 1
4091 3673 3708 1
4092 3674 3709 1
4093 3674 3710 1
4094 3674 3711 1
4095 3675 3712 1
4096 3676 3713 1
4097 3677 3714 1
4098 3677 3715 1
4099 3677 3716 1
4100 3678 3717 1
4101 3679 3718 1
4102 3680 3719 1
4103 3644 3720 1
4104 3647 3721 1
4105 3676 3722 1
4106 3723 3724 am
4107 3724 3725 am
4108 3725 3726 am
4109 3726 3727 am
4110 3727 3728 am
4111 3728 3723 am
4112 3729 3730 am
4113 3730 3731 1
4114 3725 3731 1
4115 3726 3729 1
4116 3732 3733 am
4117 3733 3734 am
4118 3734 3735 am
4119 3729 3735 am
4120 3730 3732 am
4121 3736 3737 1
4122 3737 3738 1
4123 3738 3739 1
4124 3734 3739 1
4125 3735 3736 1
4126 3740 3741 am
4127 3741 3742 am
4128 3733 3742 am
4129 3739 3740 am
4130 3743 3744 am
4131 3744 3745 am
4132 3732 3745 am
4133 3742 3743 am
4134 3746 3747 1
4135 3747 3748 am
4136 3748 3749 1
4137 3740 3749 1
4138 3741 3746 1
4139 3750 3751 am
4140 3751 3752 am
4141 3752 3753 am
4142 3747 3753 am
4143 3748 3750 am
4144 3754 3755 1
4145 3755 3756 1
4146 3756 3757 1
4147 3751 3757 1
4148 3752 3754 1
4149 3758 3759 am
4150 3759 3760 am
4151 3753 3758 am
4152 3754 3760 am
4153 3761 3762 1
4154 3762 3763 am
4155 3743 3763 am
4156 3744 3761 1
4157 3764 3765 am
4158 3765 3766 am
4159 3766 3767 am
4160 3762 3767 am
4161 3763 3764 am
4162 3768 3769 am
4163 3769 3770 am
4164 3770 3771 am
4165 3766 3771 am
4166 3767 3768 am
4167 3772 3773 am
4168 3773 3774 am
4169 3765 3774 am
4170 3771 3772 am
4171 3723 3775 1
4172 3728 3776 1
4173 3745 3777 1
4174 3769 3778 1
4175 3778 3779 1
4176 3759 3780 1
4177 3750 3781 1
4178 3772 3782 1
4179 3724 3783 1
4180 3727 3784 1
4181 3731 3785 1
4182 3731 3786 1
4183 3736 3787 1
4184 3736 3788 1
4185 3737 3789 1
4186 3737 3790 1
4187 3738 3791 1
4188 3738 3792 1
4189 3746 3793 1
4190 3749 3794 1
4191 3755 3795 1
4192 3755 3796 1
4193 3756 3797 1
4194 3756 3798 1
4195 3757 3799 1
4196 3757 3800 1
4197 3758 3801 1
4198 3760 3802 1
4199 3761 3803 1
4200 3761 3804 1
4201 3764 3805 1
4202 3768 3806 1
4203 3770 3807 1
4204 3773 3808 1
4205 3774 3809 1
4206 3775 3810 1
4207 3776 3811 1
4208 3776 3812 1
4209 3776 3813 1
4210 3777 3814 1
4211 3778 3815 1
4212 3779 3816 1
4213 3779 3817 1
4214 3779 3818 1
4215 3780 3819 1
4216 3781 3820 1
4217 3782 3821 1
4218 3746 3822 1
4219 3749 3823 1
4220 3778 3824 1
4221 3825 3826 am
4222 3826 3827 am
4223 3827 3828 am
4224 3828 3829 am
4225 3829 3830 am
4226 3830 3825 am
4227 3831 3832 am
4228 3832 3833 1
4229 3827 3833 1
4230 3828 3831 1
4231 3834 3835 am
4232 3835 3836 am
4233 3836 3837 am
4234 3831 3837 am
4235 3832 3834 am
4236 3838 3839 1
4237 3839 3840 1
4238 3840 3841 1
4239 3836 3841 1
4240 3837 3838 1
4241 3842 3843 am
4242 3843 3844 am
4243 3835 3844 am
4244 3841 3842 am
4245 3845 3846 am
4246 3846 3847 am
4247 3834 3847 am
4248 3844 3845 am
4249 3848 3849 1
4250 3849 3850 am
4251 3850 3851 1
4252 3842 3851 1
4253 3843 3848 1
4254 3852 3853 am
4255 3853 3854 am
4256 3854 3855 am
4257 3849 3855 am
4258 3850 3852 am
4259 3856 3857 1
4260 3857 3858 1
4261 3858 3859 1
4262 3853 3859 1
4263 3854 3856 1
4264 3860 3861 am
4265 3861 3862 am
4266 3855 3860 am
4267 3856 3862 am
4268 3863 3864 1
4269 3864 3865 am
4270 3845 3865 am
4271 3846 3863 1
4272 3866 3867 am
4273 3867 3868 am
4274 3868 3869 am
4275 3864 3869 am
4276 3865 3866 am
4277 3870 3871 am
4278 3871 3872 am
4279 3872 3873 am
4280 3868 3873 am
4281 3869 3870 am
4282 3874 3875 am
4283 3875 3876 am
4284 3867 3876 am
4285 3873 3874 am
4286 3825 3877 1
4287 3830 3878 1
4288 3847 3879 1
4289 3871 3880 1
4290 3880 3881 1
4291 3861 3882 1
4292 3852 3883 1
4293 3874 3884 1
4294 3826 3885 1
4295 3829 3886 1
4296 3833 3887 1
4297 3833 3888 1
4298 3838 3889 1
4299 3838 3890 1
4300 3839 3891 1
4301 3839 3892 1
4302 3840 3893 1
4303 3840 3894 1
4304 3848 3895 1
4305 3851 3896 1
4306 3857 3897 1
4307 3857 3898 1
4308 3858 3899 1
4309 3858 3900 1
4310 3859 3901 1
4311 3859 3902 1
4312 3860 3903 1
4313 3862 3904 1
4314 3863 3905 1
4315 3863 3906 1
4316 3866 3907 1
4317 3870 3908 1
4318 3872 3909 1
4319 3875 3910 1
4320 3876 3911 1
4321 3877 3912 1
4322 3878 3913 1
4323 3878 3914 1
4324 3878 3915 1
4325 3879 3916 1
4326 3880 3917 1
4327 3881 3918 1
4328 3881 3919 1
4329 3881 3920 1
4330 3882 3921 1
4331 3883 3922 1
4332 3884 3923 1
4333 3848 3924 1
4334 3851 3925 1
4335 3880 3926 1
4336 3927 3928 am
4337 3928 3929 am
4338 3929 3930 am
4339 3930 3931 am
4340 3931 3932 am
4341 3932 3927 am
4342 3933 3934 am
4343 3934 3935 1
4344 3929 3935 1
4345 3930 3933 1
4346 3936 3937 am
4347 3937 3938 am
4348 3938 3939 am
4349 3933 3939 am
4350 3934 3936 am
4351 3940 3941 1
4352 3941 3942 1
4353 3942 3943 1
4354 3938 3943 1
4355 3939 3940 1
4356 3944 3945 am
4357 3945 3946 am
4358 3937 3946 am
4359 3943 3944 am
4360 3947 3948 am
4361 3948 3949 am
4362 3936 3949 am
4363 3946 3947 am
4364 3950 3951 1
4365 3951 3952 am
4366 3952 3953 1
4367 3944 3953 1
4368 3945 3950 1
4369 3954 3955 am
4370 3955 3956 am
4371 3956 3957 am
4372 3951 3957 am
4373 3952 3954 am
4374 3958 3959 1
4375 3959 3960 1
4376 3960 3961 1
4377 3955 3961 1
4378 3956 3958 1
4379 3962 3963 am
4380 3963 3964 am
4381 3957 3962 am
4382 3958 3964 am
4383 3965 3966 1
4384 3966 3967 am
4385 3947 3967 am
4386 3948 3965 1
4387 3968 3969 am
4388 3969 3970 am
4389 3970 3971 am
4390 3966 3971 am
4391 3967 3968 am
4392 3972 3973 am
4393 3973 3974 am
4394 3974 3975 am
4395 3970 3975 am
4396 3971 3972 am
4397 3976 3977 am
4398 3977 3978 am
4399 3969 3978 am
4400 3975 3976 am
4401 3927 3979 1
4402 3932 3980 1
4403 3949 3981 1
4404 3973 3982 1
4405 3982 3983 1
4406 3963 3984 1
4407 3954 3985 1
4408 3976 3986 1
4409 3928 3987 1
4410 3931 3988 1
4411 3935 3989 1
4412 3935 3990 1
4413 3940 3991 1
4414 3940 3992 1
4415 3941 3993 1
4416 3941 3994 1
4417 3942 3995 1
4418 3942 3996 1
4419 3950 3997 1
4420 3953 3998 1
4421 3959 3999 1
4422 3959 4000 1
4423 3960 4001 1
4424 3960 4002 1
4425 3961 4003 1
4426 3961 4004 1
4427 3962 4005 1
4428 3964 4006 1
4429 3965 4007 1
4430 3965 4008 1
4431 3968 4009 1
4432 3972 4010 1
4433 3974 4011 1
4434 3977 4012 1
4435 3978 4013 1
4436 3979 4014 1
4437 3980 4015 1
4438 3980 4016 1
4439 3980 4017 1
4440 3981 4018 1
4441 3982 4019 1
4442 3983 4020 1
4443 3983 4021 1
4444 3983 4022 1
4445 3984 4023 1
4446 3985 4024 1
4447 3986 4025 1
4448 3950 4026 1
4449 3953 4027 1
4450 3982 4028 1
4451 4029 4030 am
4452 4030 4031 am
4453 4031 4032 am
4454 4032 4033 am
4455 4033 4034 am
4456 4034 4029 am
4457 4035 4036 am
4458 4036 4037 1
4459 4031 4037 1
4460 4032 4035 1
4461 4038 4039 am
4462 4039 4040 am
4463 4040 4041 am
4464 4035 4041 am
4465 4036 4038 am
4466 4042 4043 1
4467 4043 4044 1
4468 4044 4045 1
4469 4040 4045 1
4470 4041 4042 1
4471 4046 4047 am
4472 4047 4048 am
4473 4039 4048 am
4474 4045 4046 am
4475 4049 4050 am
4476 4050 4051 am
4477 4038 4051 am
4478 4048 4049 am
4479 4052 4053 1
4480 4053 4054 am
4481 4054 4055 1
4482 4046 4055 1
4483 4047 4052 1
4484 4056 4057 am
4485 4057 4058 am
4486 4058 4059 am
4487 4053 4059 am
4488 4054 4056 am
4489 4060 4061 1
4490 4061 4062 1
4491 4062 4063 1
4492 4057 4063 1
4493 4058 4060 1
4494 4064 4065 am
4495 4065 4066 am
4496 4059 4064 am
4497 4060 4066 am
4498 4067 4068 1
4499 4068 4069 am
4500 4049 4069 am
4501 4050 4067 1
4502 4070 4071 am
4503 4071 4072 am
4504 4072 4073 am
4505 4068 4073 am
4506 4069 4070 am
4507 4074 4075 am
4508 4075 4076 am
4509 4076 4077 am
4510 4072 4077 am
4511 4073 4074 am
4512 4078 4079 am
4513 4079 4080 am
4514 4071 4080 am
4515 4077 4078 am
4516 4029 4081 1
4517 4034 4082 1
4518 4051 4083 1
4519 4075 4084 1
4520 4084 4085 1
4521 4065 4086 1
4522 4056 4087 1
4523 4078 4088 1
4524 4030 4089 1
4525 4033 4090 1
4526 4037 4091 1
4527 4037 4092 1
4528 4042 4093 1
4529 4042 4094 1
4530 4043 4095 1
4531 4043 4096 1
4532 4044 4097 1
4533 4044 4098 1
4534 4052 4099 1
4535 4055 4100 1
4536 4061 4101 1
4537 4061 4102 1
4538 4062 4103 1
4539 4062 4104 1
4540 4063 4105 1
4541 4063 4106 1
4542 4064 4107 1
4543 4066 4108 1
4544 4067 4109 1
4545 4067 4110 1
4546 4070 4111 1
4547 4074 4112 1
4548 4076 4113 1
4549 4079 4114 1
4550 4080 4115 1
4551 4081 4116 1
4552 4082 4117 1
4553 4082 4118 1
4554 4082 4119 1
4555 4083 4120 1
4556 4084 4121 1
4557 4085 4122 1
4558 4085 4123 1
4559 4085 4124 1
4560 4086 4125 1
4561 4087 4126 1
4562 4088 4127 1
4563 4052 4128 1
4564 4055 4129 1
4565 4084 4130 1
4566 4131 4132 am
4567 4132 4133 am
4568 4133 4134 am
4569 4134 4135 am
4570 4135 4136 am
4571 4136 4131 am
4572 4137 4138 am
4573 4138 4139 1
4574 4133 4139 1
4575 4134 4137 1
4576 4140 4141 am
4577 4141 4142 am
4578 4142 4143 am
4579 4137 4143 am
4580 4138 4140 am
4581 4144 4145 1
4582 4145 4146 1
4583 4146 4147 1
4584 4142 4147 1
4585 4143 4144 1
4586 4148 4149 am
4587 4149 4150 am
4588 4141 4150 am
4589 4147 4148 am
4590 4151 4152 am
4591 4152 4153 am
4592 4140 4153 am
4593 4150 4151 am
4594 4154 4155 1
4595 4155 4156 am
4596 4156 4157 1
4597 4148 4157 1
4598 4149 4154 1
4599 4158 4159 am
4600 4159 4160 am
4601 4160 4161 am
4602 4155 4161 am
4603 4156 4158 am
4604 4162 4163 1
4605 4163 4164 1
4606 4164 4165 1
4607 4159 4165 1
4608 4160 4162 1
4609 4166 4167 am
4610 4167 4168 am
4611 4161 4166 am
4612 4162 4168 am
4613 4169 4170 1
4614 4170 4171 am
4615 4151 4171 am
4616 4152 4169 1
4617 4172 4173 am
4618 4173 4174 am
4619 4174 4175 am
4620 4170 4175 am
4621 4171 4172 am
4622 4176 4177 am
4623 4177 4178 am
4624 4178 4179 am
4625 4174 4179 am
4626 4175 4176 am
4627 4180 4181 am
4628 4181 4182 am
4629 4173 4182 am
4630 4179 4180 am
4631 4131 4183 1
4632 4136 4184 1
4633 4153 4185 1
4634 4177 4186 1
4635 4186 4187 1
4636 4167 4188 1
4637 4158 4189 1
4638 4180 4190 1
4639 4132 4191 1
4640 4135 4192 1
4641 4139 4193 1
4642 4139 4194 1
4643 4144 4195 1
4644 4144 4196 1
4645 4145 4197 1
4646 4145 4198 1
4647 4146 4199 1
4648 4146 4200 1
4649 4154 4201 1
4650 4157 4202 1
4651 4163 4203 1
4652 4163 4204 1
4653 4164 4205 1
4654 4164 4206 1
4655 4165 4207 1
4656 4165 4208 1
4657 4166 4209 1
4658 4168 4210 1
4659 4169 4211 1
4660 4169 4212 1
4661 4172 4213 1
4662 4176 4214 1
4663 4178 4215 1
4664 4181 4216 1
4665 4182 4217 1
4666 4183 4218 1
4667 4184 4219 1
4668 4184 4220 1
4669 4184 4221 1
4670 4185 4222 1
4671 4186 4223 1
4672 4187 4224 1
4673 4187 4225 1
4674 4187 4226 1
4675 4188 4227 1
4676 4189 4228 1
4677 4190 4229 1
4678 4154 4230 1
4679 4157 4231 1
4680 4186 4232 1
4681 4233 4234 am
4682 4234 4235 am
4683 4235 4236 am
4684 4236 4237 am
4685 4237 4238 am
4686 4238 4233 am
4687 4239 4240 am
4688 4240 4241 1
4689 4235 4241 1
4690 4236 4239 1
4691 4242 4243 am
4692 4243 4244 am
4693 4244 4245 am
4694 4239 4245 am
4695 4240 4242 am
4696 4246 4247 1
4697 4247 4248 1
4698 4248 4249 1
4699 4244 4249 1
4700 4245 4246 1
4701 4250 4251 am
4702 4251 4252 am
4703 4243 4252 am
4704 4249 4250 am
4705 4253 4254 am
4706 4254 4255 am
4707 4242 4255 am
4708 4252 4253 am
4709 4256 4257 1
4710 4257 4258 am
4711 4258 4259 1
4712 4250 4259 1
4713 4251 4256 1
4714 4260 4261 am
4715 4261 4262 am
4716 4262 4263 am
4717 4257 4263 am
4718 4258 4260 am
4719 4264 4265 1
4720 4265 4266 1
4721 4266 4267 1
4722 4261 4267 1
4723 4262 4264 1
4724 4268 4269 am
4725 4269 4270 am
4726 4263 4268 am
4727 4264 4270 am
4728 4271 4272 1
4729 4272 4273 am
4730 4253 4273 am
4731 4254 4271 1
4732 4274 4275 am
4733 4275 4276 am
4734 4276 4277 am
4735 4272 4277 am
4736 4273 4274 am
4737 4278 4279 am
4738 4279 4280 am
4739 4280 4281 am
4740 4276 4281 am
4741 4277 4278 am
4742 4282 4283 am
4743 4283 4284 am
4744 4275 4284 am
4745 4281 4282 am
4746 4233 4285 1
4747 4238 4286 1
4748 4255 4287 1
4749 4279 4288 1
4750 4288 4289 1
4751 4269 4290 1
4752 4260 4291 1
4753 4282 4292 1
4754 4234 4293 1
4755 4237 4294 1
4756 4241 4295 1
4757 4241 4296 1
4758 4246 4297 1
4759 4246 4298 1
4760 4247 4299 1
4761 4247 4300 1
4762 4248 4301 1
4763 4248 4302 1
4764 4256 4303 1
4765 4259 4304 1
4766 4265 4305 1
4767 4265 4306 1
4768 4266 4307 1
4769 4266 4308 1
4770 4267 4309 1
4771 4267 4310 1
4772 4268 4311 1
4773 4270 4312 1
4774 4271 4313 1
4775 4271 4314 1
4776 4274 4315 1
4777 4278 4316 1
4778 4280 4317 1
4779 4283 4318 1
4780 4284 4319 1
4781 4285 4320 1
4782 4286 4321 1
4783 4286 4322 1
4784 4286 4323 1
4785 4287 4324 1
4786 4288 4325 1
4787 4289 4326 1
4788 4289 4327 1
4789 4289 4328 1
4790 4290 4329 1
4791 4291 4330 1
4792 4292 4331 1
4793 4256 4332 1
4794 4259 4333 1
4795 4288 4334 1
4796 4335 4336 am
4797 4336 4337 am
4798 4337 4338 am
4799 4338 4339 am
4800 4339 4340 am
4801 4340 4335 am
4802 4341 4342 am
4803 4342 4343 1
4804 4337 4343 1
4805 4338 4341 1
4806 4344 4345 am
4807 4345 4346 am
4808 4346 4347 am
4809 4341 4347 am
4810 4342 4344 am
4811 4348 4349 1
4812 4349 4350 1
4813 4350 4351 1
4814 4346 4351 1
4815 4347 4348 1
4816 4352 4353 am
4817 4353 4354 am
4818 4345 4354 am
4819 4351 4352 am
4820 4355 4356 am
4821 4356 4357 am
4822 4344 4357 am
4823 4354 4355 am
4824 4358 4359 1
4825 4359 4360 am
4826 4360 4361 1
4827 4352 4361 1
4828 4353 4358 1
4829 4362 4363 am
4830 4363 4364 am
4831 4364 4365 am
4832 4359 4365 am
4833 4360 4362 am
4834 4366 4367 1
4835 4367 4368 1
4836 4368 4369 1
4837 4363 4369 1
4838 4364 4366 1
4839 4370 4371 am
4840 4371 4372 am
4841 4365 4370 am
4842 4366 4372 am
4843 4373 4374 1
4844 4374 4375 am
4845 4355 4375 am
4846 4356 4373 1
4847 4376 4377 am
4848 4377 4378 am
4849 4378 4379 am
4850 4374 4379 am
4851 4375 4376 am
4852 4380 4381 am
4853 4381 4382 am
4854 4382 4383 am
4855 4378 4383 am
4856 4379 4380 am
4857 4384 4385 am
4858 4385 4386 am
4859 4377 4386 am
4860 4383 4384 am
4861 4335 4387 1
4862 4340 4388 1
4863 4357 4389 1
4864 4381 4390 1
4865 4390 4391 1
4866 4371 4392 1
4867 4362 4393 1
4868 4384 4394 1
4869 4336 4395 1
4870 4339 4396 1
4871 4343 4397 1
4872 4343 4398 1
4873 4348 4399 1
4874 4348 4400 1
4875 4349 4401 1
4876 4349 4402 1
4877 4350 4403 1
4878 4350 4404 1
4879 4358 4405 1
4880 4361 4406 1
4881 4367 4407 1
4882 4367 4408 1
4883 4368 4409 1
4884 4368 4410 1
4885 4369 4411 1
4886 4369 4412 1
4887 4370 4413 1
4888 4372 4414 1
4889 4373 4415 1
4890 4373 4416 1
4891 4376 4417 1
4892 4380 4418 1
4893 4382 4419 1
4894 4385 4420 1
4895 4386 4421 1
4896 4387 4422 1
4897 4388 4423 1
4898 4388 4424 1
4899 4388 4425 1
4900 4389 4426 1
4901 4390 4427 1
4902 4391 4428 1
4903 4391 4429 1
4904 4391 4430 1
4905 4392 4431 1
4906 4393 4432 1
4907 4394 4433 1
4908 4358 4434 1
4909 4361 4435 1
4910 4390 4436 1
4911 4437 4438 am
4912 4438 4439 am
4913 4439 4440 am
4914 4440 4441 am
4915 4441 4442 am
4916 4442 4437 am
4917 4443 4444 am
4918 4444 4445 1
4919 4439 4445 1
4920 4440 4443 1
4921 4446 4447 am
4922 4447 4448 am
4923 4448 4449 am
4924 4443 4449 am
4925 4444 4446 am
4926 4450 4451 1
4927 4451 4452 1
4928 4452 4453 1
4929 4448 4453 1
4930 4449 4450 1
4931 4454 4455 am
4932 4455 4456 am
4933 4447 4456 am
4934 4453 4454 am
4935 4457 4458 am
4936 4458 4459 am
4937 4446 4459 am
4938 4456 4457 am
4939 4460 4461 1
4940 4461 4462 am
4941 4462 4463 1
4942 4454 4463 1
4943 4455 4460 1
4944 4464 4465 am
4945 4465 4466 am
4946 4466 4467 am
4947 4461 4467 am
4948 4462 4464 am
4949 4468 4469 1
4950 4469 4470 1
4951 4470 4471 1
4952 4465 4471 1
4953 4466 4468 1
4954 4472 4473 am
4955 4473 4474 am
4956 4467 4472 am
4957 4468 4474 am
4958 4475 4476 1
4959 4476 4477 am
4960 4457 4477 am
4961 4458 4475 1
4962 4478 4479 am
4963 4479 4480 am
4964 4480 4481 am
4965 4476 4481 am
4966 4477 4478 am
4967 4482 4483 am
4968 4483 4484 am
4969 4484 4485 am
4970 4480 4485 am
4971 4481 4482 am
4972 4486 4487 am
4973 4487 4488 am
4974 4479 4488 am
4975 4485 4486 am
4976 4437 4489 1
4977 4442 4490 1
4978 4459 4491 1
4979 4483 4492 1
4980 4492 4493 1
4981 4473 4494 1
4982 4464 4495 1
4983 4486 4496 1
4984 4438 4497 1
4985 4441 4498 1
4986 4445 4499 1
4987 4445 4500 1
4988 4450 4501 1
4989 4450 4502 1
4990 4451 4503 1
4991 4451 4504 1
4992 4452 4505 1
4993 4452 4506 1
4994 4460 4507 1
4995 4463 4508 1
4996 4469 4509 1
4997 4469 4510 1
4998 4470 4511 1
4999 4470 4512 1
5000 4471 4513 1
5001 4471 4514 1
5002 4472 4515 1
5003 4474 4516 1
5004 4475 4517 1
5005 4475 4518 1
5006 4478 4519 1
5007 4482 4520 1
5008 4484 4521 1
5009 4487 4522 1
5010 4488 4523 1
5011 4489 4524 1
5012 4490 4525 1
5013 4490 4526 1
5014 4490 4527 1
5015 4491 4528 1
5016 4492 4529 1
5017 4493 4530 1
5018 4493 4531 1
5019 4493 4532 1
5020 4494 4533 1
5021 4495 4534 1
5022 4496 4535 1
5023 4460 4536 1
5024 4463 4537 1
5025 4492 4538 1
5026 4539 4540 am
5027 4540 4541 am
5028 4541 4542 am
5029 4542 4543 am
5030 4543 4544 am
5031 4544 4539 am
5032 4545 4546 am
5033 4546 4547 1
5034 4541 4547 1
5035 4542 4545 1
5036 4548 4549 am
5037 4549 4550 am
5038 4550 4551 am
5039 4545 4551 am
5040 4546 4548 am
5041 4552 4553 1
5042 4553 4554 1
5043 4554 4555 1
5044 4550 4555 1
5045 4551 4552 1
5046 4556 4557 am
5047 4557 4558 am
5048 4549 4558 am
5049 4555 4556 am
5050 4559 4560 am
5051 4560 4561 am
5052 4548 4561 am
5053 4558 4559 am
5054 4562 4563 1
5055 4563 4564 am
5056 4564 4565 1
5057 4556 4565 1
5058 4557 4562 1
5059 4566 4567 am
5060 4567 4568 am
5061 4568 4569 am
5062 4563 4569 am
5063 4564 4566 am
5064 4570 4571 1
5065 4571 4572 1
5066 4572 4573 1
5067 4567 4573 1
5068 4568 4570 1
5069 4574 4575 am
5070 4575 4576 am
5071 4569 4574 am
5072 4570 4576 am
5073 4577 4578 1
5074 4578 4579 am
5075 4559 4579 am
5076 4560 4577 1
5077 4580 4581 am
5078 4581 4582 am
5079 4582 4583 am
5080 4578 4583 am
5081 4579 4580 am
5082 4584 4585 am
5083 4585 4586 am
5084 4586 4587 am
5085 4582 4587 am
5086 4583 4584 am
5087 4588 4589 am
5088 4589 4590 am
5089 4581 4590 am
5090 4587 4588 am
5091 4539 4591 1
5092 4544 4592 1
5093 4561 4593 1
5094 4585 4594 1
5095 4594 4595 1
5096 4575 4596 1
5097 4566 4597 1
5098 4588 4598 1
5099 4540 4599 1
5100 4543 4600 1
5101 4547 4601 1
5102 4547 4602 1
5103 4552 4603 1
5104 4552 4604 1
5105 4553 4605 1
5106 4553 4606 1
5107 4554 4607 1
5108 4554 4608 1
5109 4562 4609 1
5110 4565 4610 1
5111 4571 4611 1
5112 4571 4612 1
5113 4572 4613 1
5114 4572 4614 1
5115 4573 4615 1
5116 4573 4616 1
5117 4574 4617 1
5118 4576 4618 1
5119 4577 4619 1
5120 4577 4620 1
5121 4580 4621 1
5122 4584 4622 1
5123 4586 4623 1
5124 4589 4624 1
5125 4590 4625 1
5126 4591 4626 1
5127 4592 4627 1
5128 4592 4628 1
5129 4592 4629 1
5130 4593 4630 1
5131 4594 4631 1
5132 4595 4632 1
5133 4595 4633 1
5134 4595 4634 1
5135 4596 4635 1
5136 4597 4636 1
5137 4598 4637 1
5138 4562 4638 1
5139 4565 4639 1
5140 4594 4640 1
5141 4643 4642 1
5142 4644 4643 1
5143 4645 4644 1
5144 4646 4645 1
5145 4641 4642 1
5146 4641 4646 1
5147 4648 4647 1
5148 4649 4648 1
5149 4650 4649 1
5150 4644 4647 1
5151 4643 4650 1
5152 4652 4651 1
5153 4653 4652 1
5154 4654 4653 1
5155 4648 4651 1
5156 4647 4654 1
5157 4656 4655 1
5158 4657 4656 1
5159 4658 4657 1
5160 4653 4655 1
5161 4652 4658 1
5162 4660 4659 1
5163 4661 4660 1
5164 4662 4661 1
5165 4657 4659 1
5166 4656 4662 1
5167 4664 4663 1
5168 4665 4664 1
5169 4655 4665 2
5170 4662 4663 1
5171 4667 4666 1
5172 4668 4667 1
5173 4669 4668 1
5174 4661 4666 1
5175 4660 4669 1
5176 4671 4670 1
5177 4672 4671 1
5178 4658 4670 1
5179 4659 4672 1
5180 4674 4673 2
5181 4675 4674 1
5182 4676 4675 1
5183 4671 4673 1
5184 4670 4676 2
5185 4678 4677 1
5186 4679 4678 1
5187 4680 4679 2
5188 4674 4677 1
5189 4673 4680 1
5190 4682 4681 1
5191 4683 4682 1
5192 4684 4683 1
5193 4680 4681 1
5194 4679 4684 1
5195 4686 4685 1
5196 4672 4686 1
5197 4669 4685 1
5198 4688 4687 1
5199 4689 4688 1
5200 4685 4689 1
5201 4668 4687 1
5202 4691 4690 1
5203 4692 4691 1
5204 4693 4692 1
5205 4688 4690 1
5206 4687 4693 1
5207 4695 4694 1
5208 4696 4695 1
5209 4697 4696 1
5210 4692 4694 1
5211 4691 4697 1
5212 4699 4698 1
5213 4700 4699 1
5214 4701 4700 1
5215 4696 4698 1
5216 4695 4701 1
5217 4703 4702 1
5218 4667 4703 1
5219 4693 4702 1
5220 4705 4704 1
5221 4702 4705 1
5222 4694 4704 1
5223 4707 4706 1
5224 4704 4707 1
5225 4701 4706 1
5226 4709 4708 1
5227 4710 4709 1
5228 4706 4710 1
5229 4700 4708 1
5230 4712 4711 1
5231 4713 4712 1
5232 4714 4713 1
5233 4699 4711 1
5234 4698 4714 1
5235 4716 4715 1
5236 4717 4716 1
5237 4718 4717 1
5238 4713 4715 1
5239 4712 4718 1
5240 4720 4719 1
5241 4721 4720 1
5242 4722 4721 1
5243 4718 4719 1
5244 4717 4722 1
5245 4724 4723 1
5246 4725 4724 1
5247 4707 4725 1
5248 4705 4723 1
5249 4727 4726 1
5250 4728 4727 1
5251 4729 4728 1
5252 4724 4726 1
5253 4723 4729 1
5254 4731 4730 1
5255 4732 4731 1
5256 4733 4732 1
5257 4728 4730 1
5258 4727 4733 1
5259 4735 4734 1
5260 4725 4735 1
5261 4710 4734 1
5262 4737 4736 1
5263 4738 4737 1
5264 4734 4738 1
5265 4709 4736 1
5266 4740 4739 1
5267 4741 4740 1
5268 4708 4741 1
5269 4736 4739 1
5270 4743 4742 1
5271 4744 4743 1
5272 4737 4742 1
5273 4739 4744 1
5274 4746 4745 1
5275 4747 4746 1
5276 4740 4745 1
5277 4744 4747 1
5278 4749 4748 1
5279 4750 4749 1
5280 4751 4750 1
5281 4746 4748 1
5282 4745 4751 1
5283 4753 4752 1
5284 4754 4753 1
5285 4743 4754 1
5286 4747 4752 1
5287 4748 4755 1
5288 4752 4756 1
5289 4755 4756 1
5290 4682 4757 1
5291 4757 4758 1
5292 4757 4759 1
5293 4714 4760 1
5294 4762 4761 1
5295 4763 4762 1
5296 4764 4763 1
5297 4754 4761 1
5298 4753 4764 1
5299 4766 4765 1
5300 4767 4766 1
5301 4768 4767 1
5302 4764 4765 1
5303 4763 4768 1
5304 4770 4769 1
5305 4771 4770 1
5306 4772 4771 1
5307 4767 4769 1
5308 4766 4772 1
5309 4774 4773 1
5310 4775 4774 1
5311 4765 4775 1
5312 4772 4773 1
5313 4777 4776 1
5314 4778 4777 1
5315 4771 4778 1
5316 4773 4776 1
5317 4780 4779 1
5318 4774 4780 1
5319 4756 4775 1
5320 4755 4779 1
5321 4782 4781 1
5322 4780 4782 1
5323 4776 4781 1
5324 4784 4783 1
5325 4785 4784 1
5326 4786 4785 1
5327 4782 4783 1
5328 4781 4786 1
5329 4786 4787 2
5330 4641 4788 1
5331 4641 4789 1
5332 4642 4790 1
5333 4642 4791 1
5334 4643 4792 1
5335 4644 4793 1
5336 4645 4794 1
5337 4645 4795 1
5338 4647 4796 1
5339 4648 4797 1
5340 4649 4798 1
5341 4649 4799 1
5342 4650 4800 1
5343 4650 4801 1
5344 4652 4802 1
5345 4653 4803 1
5346 4654 4804 1
5347 4654 4805 1
5348 4658 4806 1
5349 4663 4807 1
5350 4663 4808 1
5351 4664 4809 1
5352 4664 4810 1
5353 4665 4811 1
5354 4675 4813 1
5355 4675 4814 1
5356 4676 4815 1
5357 4677 4816 1
5358 4677 4817 1
5359 4678 4818 1
5360 4678 4819 1
5361 4681 4820 1
5362 4681 4821 1
5363 4682 4822 1
5364 4683 4823 1
5365 4683 4824 1
5366 4684 4825 1
5367 4684 4826 1
5368 4686 4827 1
5369 4690 4828 1
5370 4697 4829 1
5371 4703 4830 1
5372 4712 4831 1
5373 4713 4832 1
5374 4714 4833 1
5375 4715 4834 1
5376 4715 4835 1
5377 4716 4836 1
5378 4716 4837 1
5379 4717 4838 1
5380 4718 4839 1
5381 4719 4840 1
5382 4719 4841 1
5383 4720 4842 1
5384 4720 4843 1
5385 4721 4844 1
5386 4721 4845 1
5387 4722 4846 1
5388 4727 4847 1
5389 4728 4848 1
5390 4730 4849 1
5391 4730 4850 1
5392 4731 4851 1
5393 4731 4852 1
5394 4732 4853 1
5395 4732 4854 1
5396 4733 4855 1
5397 4733 4856 1
5398 4735 4857 1
5399 4738 4858 1
5400 4741 4859 1
5401 4745 4860 1
5402 4746 4861 1
5403 4748 4862 1
5404 4749 4863 1
5405 4749 4864 1
5406 4750 4865 1
5407 4750 4866 1
5408 4751 4867 1
5409 4751 4868 1
5410 4757 4869 1
5411 4758 4870 1
5412 4758 4871 1
5413 4758 4872 1
5414 4759 4873 1
5415 4759 4874 1
5416 4759 4875 1
5417 4760 4876 1
5418 4761 4877 1
5419 4762 4878 1
5420 4768 4879 1
5421 4769 4880 1
5422 4770 4881 1
5423 4777 4882 1
5424 4778 4883 1
5425 4779 4884 1
5426 4783 4885 1
5427 4783 4886 1
5428 4784 4887 1
5429 4784 4888 1
5430 4785 4889 1
5431 4785 4890 1
5432 4671 4812 1
5433 4893 4892 1
5434 4894 4893 1
5435 4895 4894 1
5436 4896 4895 1
5437 4891 4892 1
5438 4891 4896 1
5439 4898 4897 1
5440 4899 4898 1
5441 4900 4899 1
5442 4894 4897 1
5443 4893 4900 1
5444 4902 4901 1
5445 4903 4902 1
5446 4904 4903 1
5447 4898 4901 1
5448 4897 4904 1
5449 4906 4905 1
5450 4907 4906 1
5451 4908 4907 1
5452 4903 4905 1
5453 4902 4908 1
5454 4910 4909 1
5455 4911 4910 1
5456 4912 4911 1
5457 4907 4909 1
5458 4906 4912 1
5459 4914 4913 1
5460 4915 4914 1
5461 4905 4915 2
5462 4912 4913 1
5463 4917 4916 1
5464 4918 4917 1
5465 4919 4918 1
5466 4911 4916 1
5467 4910 4919 1
5468 4921 4920 1
5469 4922 4921 1
5470 4908 4920 1
5471 4909 4922 1
5472 4924 4923 2
5473 4925 4924 1
5474 4926 4925 1
5475 4921 4923 1
5476 4920 4926 2
5477 4928 4927 1
5478 4929 4928 1
5479 4930 4929 2
5480 4924 4927 1
5481 4923 4930 1
5482 4932 4931 1
5483 4933 4932 1
5484 4934 4933 1
5485 4930 4931 1
5486 4929 4934 1
5487 4936 4935 1
5488 4922 4936 1
5489 4919 4935 1
5490 4938 4937 1
5491 4939 4938 1
5492 4935 4939 1
5493 4918 4937 1
5494 4941 4940 1
5495 4942 4941 1
5496 4943 4942 1
5497 4938 4940 1
5498 4937 4943 1
5499 4945 4944 1
5500 4946 4945 1
5501 4947 4946 1
5502 4942 4944 1
5503 4941 4947 1
5504 4949 4948 1
5505 4950 4949 1
5506 4951 4950 1
5507 4946 4948 1
5508 4945 4951 1
5509 4953 4952 1
5510 4917 4953 1
5511 4943 4952 1
5512 4955 4954 1
5513 4952 4955 1
5514 4944 4954 1
5515 4957 4956 1
5516 4954 4957 1
5517 4951 4956 1
5518 4959 4958 1
5519 4960 4959 1
5520 4956 4960 1
5521 4950 4958 1
5522 4962 4961 1
5523 4963 4962 1
5524 4964 4963 1
5525 4949 4961 1
5526 4948 4964 1
5527 4966 4965 1
5528 4967 4966 1
5529 4968 4967 1
5530 4963 4965 1
5531 4962 4968 1
5532 4970 4969 1
5533 4971 4970 1
5534 4972 4971 1
5535 4968 4969 1
5536 4967 4972 1
5537 4974 4973 1
5538 4975 4974 1
5539 4957 4975 1
5540 4955 4973 1
5541 4977 4976 1
5542 4978 4977 1
5543 4979 4978 1
5544 4974 4976 1
5545 4973 4979 1
5546 4981 4980 1
5547 4982 4981 1
5548 4983 4982 1
5549 4978 4980 1
5550 4977 4983 1
5551 4985 4984 1
5552 4975 4985 1
5553 4960 4984 1
5554 4987 4986 1
5555 4988 4987 1
5556 4984 4988 1
5557 4959 4986 1
5558 4990 4989 1
5559 4991 4990 1
5560 4958 4991 1
5561 4986 4989 1
5562 4993 4992 1
5563 4994 4993 1
5564 4987 4992 1
5565 4989 4994 1
5566 4996 4995 1
5567 4997 4996 1
5568 4990 4995 1
5569 4994 4997 1
5570 4999 4998 1
5571 5000 4999 1
5572 5001 5000 1
5573 4996 4998 1
5574 4995 5001 1
5575 5003 5002 1
5576 5004 5003 1
5577 4993 5004 1
5578 4997 5002 1
5579 4998 5005 1
5580 5002 5006 1
5581 5005 5006 1
5582 4932 5007 1
5583 5007 5008 1
5584 5007 5009 1
5585 4964 5010 1
5586 5012 5011 1
5587 5013 5012 1
5588 5014 5013 1
5589 5004 5011 1
5590 5003 5014 1
5591 5016 5015 1
5592 5017 5016 1
5593 5018 5017 1
5594 5014 5015 1
5595 5013 5018 1
5596 5020 5019 1
5597 5021 5020 1
5598 5022 5021 1
5599 5017 5019 1
5600 5016 5022 1
5601 5024 5023 1
5602 5025 5024 1
5603 5015 5025 1
5604 5022 5023 1
5605 5027 5026 1
5606 5028 5027 1
5607 5021 5028 1
5608 5023 5026 1
5609 5030 5029 1
5610 5024 5030 1
5611 5006 5025 1
5612 5005 5029 1
5613 5032 5031 1
5614 5030 5032 1
5615 5026 5031 1
5616 5034 5033 1
5617 5035 5034 1
5618 5036 5035 1
5619 5032 5033 1
5620 5031 5036 1
5621 5036 5037 2
5622 4891 5038 1
5623 4891 5039 1
5624 4892 5040 1
5625 4892 5041 1
5626 4893 5042 1
5627 4894 5043 1
5628 4895 5044 1
5629 4895 5045 1
5630 4897 5046 1
5631 4898 5047 1
5632 4899 5048 1
5633 4899 5049 1
5634 4900 5050 1
5635 4900 5051 1
5636 4902 5052 1
5637 4903 5053 1
5638 4904 5054 1
5639 4904 5055 1
5640 4908 5056 1
5641 4913 5057 1
5642 4913 5058 1
5643 4914 5059 1
5644 4914 5060 1
5645 4915 5061 1
5646 4925 5063 1
5647 4925 5064 1
5648 4926 5065 1
5649 4927 5066 1
5650 4927 5067 1
5651 4928 5068 1
5652 4928 5069 1
5653 4931 5070 1
5654 4931 5071 1
5655 4932 5072 1
5656 4933 5073 1
5657 4933 5074 1
5658 4934 5075 1
5659 4934 5076 1
5660 4936 5077 1
5661 4940 5078 1
5662 4947 5079 1
5663 4953 5080 1
5664 4962 5081 1
5665 4963 5082 1
5666 4964 5083 1
5667 4965 5084 1
5668 4965 5085 1
5669 4966 5086 1
5670 4966 5087 1
5671 4967 5088 1
5672 4968 5089 1
5673 4969 5090 1
5674 4969 5091 1
5675 4970 5092 1
5676 4970 5093 1
5677 4971 5094 1
5678 4971 5095 1
5679 4972 5096 1
5680 4977 5097 1
5681 4978 5098 1
5682 4980 5099 1
5683 4980 5100 1
5684 4981 5101 1
5685 4981 5102 1
5686 4982 5103 1
5687 4982 5104 1
5688 4983 5105 1
5689 4983 5106 1
5690 4985 5107 1
5691 4988 5108 1
5692 4991 5109 1
5693 4995 5110 1
5694 4996 5111 1
5695 4998 5112 1
5696 4999 5113 1
5697 4999 5114 1
5698 5000 5115 1
5699 5000 5116 1
5700 5001 5117 1
5701 5001 5118 1
5702 5007 5119 1
5703 5008 5120 1
5704 5008 5121 1
5705 5008 5122 1
5706 5009 5123 1
5707 5009 5124 1
5708 5009 5125 1
5709 5010 5126 1
5710 5011 5127 1
5711 5012 5128 1
5712 5018 5129 1
5713 5019 5130 1
5714 5020 5131 1
5715 5027 5132 1
5716 5028 5133 1
5717 5029 5134 1
5718 5033 5135 1
5719 5033 5136 1
5720 5034 5137 1
5721 5034 5138 1
5722 5035 5139 1
5723 5035 5140 1
5724 4921 5062 1
5725 5143 5142 1
5726 5144 5143 1
5727 5145 5144 1
5728 5146 5145 1
5729 5141 5142 1
5730 5141 5146 1
5731 5148 5147 1
5732 5149 5148 1
5733 5150 5149 1
5734 5144 5147 1
5735 5143 5150 1
5736 5152 5151 1
5737 5153 5152 1
5738 5154 5153 1
5739 5148 5151 1
5740 5147 5154 1
5741 5156 5155 1
5742 5157 5156 1
5743 5158 5157 1
5744 5153 5155 1
5745 5152 5158 1
5746 5160 5159 1
5747 5161 5160 1
5748 5162 5161 1
5749 5157 5159 1
5750 5156 5162 1
5751 5164 5163 1
5752 5165 5164 1
5753 5155 5165 2
5754 5162 5163 1
5755 5167 5166 1
5756 5168 5167 1
5757 5169 5168 1
5758 5161 5166 1
5759 5160 5169 1
5760 5171 5170 1
5761 5172 5171 1
5762 5158 5170 1
5763 5159 5172 1
5764 5174 5173 2
5765 5175 5174 1
5766 5176 5175 1
5767 5171 5173 1
5768 5170 5176 2
5769 5178 5177 1
5770 5179 5178 1
5771 5180 5179 2
5772 5174 5177 1
5773 5173 5180 1
5774 5182 5181 1
5775 5183 5182 1
5776 5184 5183 1
5777 5180 5181 1
5778 5179 5184 1
5779 5186 5185 1
5780 5172 5186 1
5781 5169 5185 1
5782 5188 5187 1
5783 5189 5188 1
5784 5185 5189 1
5785 5168 5187 1
5786 5191 5190 1
5787 5192 5191 1
5788 5193 5192 1
5789 5188 5190 1
5790 5187 5193 1
5791 5195 5194 1
5792 5196 5195 1
5793 5197 5196 1
5794 5192 5194 1
5795 5191 5197 1
5796 5199 5198 1
5797 5200 5199 1
5798 5201 5200 1
5799 5196 5198 1
5800 5195 5201 1
5801 5203 5202 1
5802 5167 5203 1
5803 5193 5202 1
5804 5205 5204 1
5805 5202 5205 1
5806 5194 5204 1
5807 5207 5206 1
5808 5204 5207 1
5809 5201 5206 1
5810 5209 5208 1
5811 5210 5209 1
5812 5206 5210 1
5813 5200 5208 1
5814 5212 5211 1
5815 5213 5212 1
5816 5214 5213 1
5817 5199 5211 1
5818 5198 5214 1
5819 5216 5215 1
5820 5217 5216 1
5821 5218 5217 1
5822 5213 5215 1
5823 5212 5218 1
5824 5220 5219 1
5825 5221 5220 1
5826 5222 5221 1
5827 5218 5219 1
5828 5217 5222 1
5829 5224 5223 1
5830 5225 5224 1
5831 5207 5225 1
5832 5205 5223 1
5833 5227 5226 1
5834 5228 5227 1
5835 5229 5228 1
5836 5224 5226 1
5837 5223 5229 1
5838 5231 5230 1
5839 5232 5231 1
5840 5233 5232 1
5841 5228 5230 1
5842 5227 5233 1
5843 5235 5234 1
5844 5225 5235 1
5845 5210 5234 1
5846 5237 5236 1
5847 5238 5237 1
5848 5234 5238 1
5849 5209 5236 1
5850 5240 5239 1
5851 5241 5240 1
5852 5208 5241 1
5853 5236 5239 1
5854 5243 5242 1
5855 5244 5243 1
5856 5237 5242 1
5857 5239 5244 1
5858 5246 5245 1
5859 5247 5246 1
5860 5240 5245 1
5861 5244 5247 1
5862 5249 5248 1
5863 5250 5249 1
5864 5251 5250 1
5865 5246 5248 1
5866 5245 5251 1
5867 5253 5252 1
5868 5254 5253 1
5869 5243 5254 1
5870 5247 5252 1
5871 5248 5255 1
5872 5252 5256 1
5873 5255 5256 1
5874 5182 5257 1
5875 5257 5258 1
5876 5257 5259 1
5877 5214 5260 1
5878 5262 5261 1
5879 5263 5262 1
5880 5264 5263 1
5881 5254 5261 1
5882 5253 5264 1
5883 5266 5265 1
5884 5267 5266 1
5885 5268 5267 1
5886 5264 5265 1
5887 5263 5268 1
5888 5270 5269 1
5889 5271 5270 1
5890 5272 5271 1
5891 5267 5269 1
5892 5266 5272 1
5893 5274 5273 1
5894 5275 5274 1
5895 5265 5275 1
5896 5272 5273 1
5897 5277 5276 1
5898 5278 5277 1
5899 5271 5278 1
5900 5273 5276 1
5901 5280 5279 1
5902 5274 5280 1
5903 5256 5275 1
5904 5255 5279 1
5905 5282 5281 1
5906 5280 5282 1
5907 5276 5281 1
5908 5284 5283 1
5909 5285 5284 1
5910 5286 5285 1
5911 5282 5283 1
5912 5281 5286 1
5913 5286 5287 2
5914 5141 5288 1
5915 5141 5289 1
5916 5142 5290 1
5917 5142 5291 1
5918 5143 5292 1
5919 5144 5293 1
5920 5145 5294 1
5921 5145 5295 1
5922 5147 5296 1
5923 5148 5297 1
5924 5149 5298 1
5925 5149 5299 1
5926 5150 5300 1
5927 5150 5301 1
5928 5152 5302 1
5929 5153 5303 1
5930 5154 5304 1
5931 5154 5305 1
5932 5158 5306 1
5933 5163 5307 1
5934 5163 5308 1
5935 5164 5309 1
5936 5164 5310 1
5937 5165 5311 1
5938 5175 5313 1
5939 5175 5314 1
5940 5176 5315 1
5941 5177 5316 1
5942 5177 5317 1
5943 5178 5318 1
5944 5178 5319 1
5945 5181 5320 1
5946 5181 5321 1
5947 5182 5322 1
5948 5183 5323 1
5949 5183 5324 1
5950 5184 5325 1
5951 5184 5326 1
5952 5186 5327 1
5953 5190 5328 1
5954 5197 5329 1
5955 5203 5330 1
5956 5212 5331 1
5957 5213 5332 1
5958 5214 5333 1
5959 5215 5334 1
5960 5215 5335 1
5961 5216 5336 1
5962 5216 5337 1
5963 5217 5338 1
5964 5218 5339 1
5965 5219 5340 1
5966 5219 5341 1
5967 5220 5342 1
5968 5220 5343 1
5969 5221 5344 1
5970 5221 5345 1
5971 5222 5346 1
5972 5227 5347 1
5973 5228 5348 1
5974 5230 5349 1
5975 5230 5350 1
5976 5231 5351 1
5977 5231 5352 1
5978 5232 5353 1
5979 5232 5354 1
5980 5233 5355 1
5981 5233 5356 1
5982 5235 5357 1
5983 5238 5358 1
5984 5241 5359 1
5985 5245 5360 1
5986 5246 5361 1
5987 5248 5362 1
5988 5249 5363 1
5989 5249 5364 1
5990 5250 5365 1
5991 5250 5366 1
5992 5251 5367 1
5993 5251 5368 1
5994 5257 5369 1
5995 5258 5370 1
5996 5258 5371 1
5997 5258 5372 1
5998 5259 5373 1
5999 5259 5374 1
6000 5259 5375 1
6001 5260 5376 1
6002 5261 5377 1
6003 5262 5378 1
6004 5268 5379 1
6005 5269 5380 1
6006 5270 5381 1
6007 5277 5382 1
6008 5278 5383 1
6009 5279 5384 1
6010 5283 5385 1
6011 5283 5386 1
6012 5284 5387 1
6013 5284 5388 1
6014 5285 5389 1
6015 5285 5390 1
6016 5171 5312 1
6017 5393 5392 1
6018 5394 5393 1
6019 5395 5394 1
6020 5396 5395 1
6021 5391 5392 1
6022 5391 5396 1
6023 5398 5397 1
6024 5399 5398 1
6025 5400 5399 1
6026 5394 5397 1
6027 5393 5400 1
6028 5402 5401 1
6029 5403 5402 1
6030 5404 5403 1
6031 5398 5401 1
6032 5397 5404 1
6033 5406 5405 1
6034 5407 5406 1
6035 5408 5407 1
6036 5403 5405 1
6037 5402 5408 1
6038 5410 5409 1
6039 5411 5410 1
6040 5412 5411 1
6041 5407 5409 1
6042 5406 5412 1
6043 5414 5413 1
6044 5415 5414 1
6045 5405 5415 2
6046 5412 5413 1
6047 5417 5416 1
6048 5418 5417 1
6049 5419 5418 1
6050 5411 5416 1
6051 5410 5419 1
6052 5421 5420 1
6053 5422 5421 1
6054 5408 5420 1
6055 5409 5422 1
6056 5424 5423 2
6057 5425 5424 1
6058 5426 5425 1
6059 5421 5423 1
6060 5420 5426 2
6061 5428 5427 1
6062 5429 5428 1
6063 5430 5429 2
6064 5424 5427 1
6065 5423 5430 1
6066 5432 5431 1
6067 5433 5432 1
6068 5434 5433 1
6069 5430 5431 1
6070 5429 5434 1
6071 5436 5435 1
6072 5422 5436 1
6073 5419 5435 1
6074 5438 5437 1
6075 5439 5438 1
6076 5435 5439 1
6077 5418 5437 1
6078 5441 5440 1
6079 5442 5441 1
6080 5443 5442 1
6081 5438 5440 1
6082 5437 5443 1
6083 5445 5444 1
6084 5446 5445 1
6085 5447 5446 1
6086 5442 5444 1
6087 5441 5447 1
6088 5449 5448 1
6089 5450 5449 1
6090 5451 5450 1
6091 5446 5448 1
6092 5445 5451 1
6093 5453 5452 1
6094 5417 5453 1
6095 5443 5452 1
6096 5455 5454 1
6097 5452 5455 1
6098 5444 5454 1
6099 5457 5456 1
6100 5454 5457 1
6101 5451 5456 1
6102 5459 5458 1
6103 5460 5459 1
6104 5456 5460 1
6105 5450 5458 1
6106 5462 5461 1
6107 5463 5462 1
6108 5464 5463 1
6109 5449 5461 1
6110 5448 5464 1
6111 5466 5465 1
6112 5467 5466 1
6113 5468 5467 1
6114 5463 5465 1
6115 5462 5468 1
6116 5470 5469 1
6117 5471 5470 1
6118 5472 5471 1
6119 5468 5469 1
6120 5467 5472 1
6121 5474 5473 1
6122 5475 5474 1
6123 5457 5475 1
6124 5455 5473 1
6125 5477 5476 1
6126 5478 5477 1
6127 5479 5478 1
6128 5474 5476 1
6129 5473 5479 1
6130 5481 5480 1
6131 5482 5481 1
6132 5483 5482 1
6133 5478 5480 1
6134 5477 5483 1
6135 5485 5484 1
6136 5475 5485 1
6137 5460 5484 1
6138 5487 5486 1
6139 5488 5487 1
6140 5484 5488 1
6141 5459 5486 1
6142 5490 5489 1
6143 5491 5490 1
6144 5458 5491 1
6145 5486 5489 1
6146 5493 5492 1
6147 5494 5493 1
6148 5487 5492 1
6149 5489 5494 1
6150 5496 5495 1
6151 5497 5496 1
6152 5490 5495 1
6153 5494 5497 1
6154 5499 5498 1
6155 5500 5499 1
6156 5501 5500 1
6157 5496 5498 1
6158 5495 5501 1
6159 5503 5502 1
6160 5504 5503 1
6161 5493 5504 1
6162 5497 5502 1
6163 5498 5505 1
6164 5502 5506 1
6165 5505 5506 1
6166 5432 5507 1
6167 5507 5508 1
6168 5507 5509 1
6169 5464 5510 1
6170 5512 5511 1
6171 5513 5512 1
6172 5514 5513 1
6173 5504 5511 1
6174 5503 5514 1
6175 5516 5515 1
6176 5517 5516 1
6177 5518 5517 1
6178 5514 5515 1
6179 5513 5518 1
6180 5520 5519 1
6181 5521 5520 1
6182 5522 5521 1
6183 5517 5519 1
6184 5516 5522 1
6185 5524 5523 1
6186 5525 5524 1
6187 5515 5525 1
6188 5522 5523 1
6189 5527 5526 1
6190 5528 5527 1
6191 5521 5528 1
6192 5523 5526 1
6193 5530 5529 1
6194 5524 5530 1
6195 5506 5525 1
6196 5505 5529 1
6197 5532 5531 1
6198 5530 5532 1
6199 5526 5531 1
6200 5534 5533 1
6201 5535 5534 1
6202 5536 5535 1
6203 5532 5533 1
6204 5531 5536 1
6205 5536 5537 2
6206 5391 5538 1
6207 5391 5539 1
6208 5392 5540 1
6209 5392 5541 1
6210 5393 5542 1
6211 5394 5543 1
6212 5395 5544 1
6213 5395 5545 1
6214 5397 5546 1
6215 5398 5547 1
6216 5399 5548 1
6217 5399 5549 1
6218 5400 5550 1
6219 5400 5551 1
6220 5402 5552 1
6221 5403 5553 1
6222 5404 5554 1
6223 5404 5555 1
6224 5408 5556 1
6225 5413 5557 1
6226 5413 5558 1
6227 5414 5559 1
6228 5414 5560 1
6229 5415 5561 1
6230 5425 5563 1
6231 5425 5564 1
6232 5426 5565 1
6233 5427 5566 1
6234 5427 5567 1
6235 5428 5568 1
6236 5428 5569 1
6237 5431 5570 1
6238 5431 5571 1
6239 5432 5572 1
6240 5433 5573 1
6241 5433 5574 1
6242 5434 5575 1
6243 5434 5576 1
6244 5436 5577 1
6245 5440 5578 1
6246 5447 5579 1
6247 5453 5580 1
6248 5462 5581 1
6249 5463 5582 1
6250 5464 5583 1
6251 5465 5584 1
6252 5465 5585 1
6253 5466 5586 1
6254 5466 5587 1
6255 5467 5588 1
6256 5468 5589 1
6257 5469 5590 1
6258 5469 5591 1
6259 5470 5592 1
6260 5470 5593 1
6261 5471 5594 1
6262 5471 5595 1
6263 5472 5596 1
6264 5477 5597 1
6265 5478 5598 1
6266 5480 5599 1
6267 5480 5600 1
6268 5481 5601 1
6269 5481 5602 1
6270 5482 5603 1
6271 5482 5604 1
6272 5483 5605 1
6273 5483 5606 1
6274 5485 5607 1
6275 5488 5608 1
6276 5491 5609 1
6277 5495 5610 1
6278 5496 5611 1
6279 5498 5612 1
6280 5499 5613 1
6281 5499 5614 1
6282 5500 5615 1
6283 5500 5616 1
6284 5501 5617 1
6285 5501 5618 1
6286 5507 5619 1
6287 5508 5620 1
6288 5508 5621 1
6289 5508 5622 1
6290 5509 5623 1
6291 5509 5624 1
6292 5509 5625 1
6293 5510 5626 1
6294 5511 5627 1
6295 5512 5628 1
6296 5518 5629 1
6297 5519 5630 1
6298 5520 5631 1
6299 5527 5632 1
6300 5528 5633 1
6301 5529 5634 1
6302 5533 5635 1
6303 5533 5636 1
6304 5534 5637 1
6305 5534 5638 1
6306 5535 5639 1
6307 5535 5640 1
6308 5421 5562 1
6309 5643 5642 1
6310 5644 5643 1
6311 5645 5644 1
6312 5646 5645 1
6313 5641 5642 1
6314 5641 5646 1
6315 5648 5647 1
6316 5649 5648 1
6317 5650 5649 1
6318 5644 5647 1
6319 5643 5650 1
6320 5652 5651 1
6321 5653 5652 1
6322 5654 5653 1
6323 5648 5651 1
6324 5647 5654 1
6325 5656 5655 1
6326 5657 5656 1
6327 5658 5657 1
6328 5653 5655 1
6329 5652 5658 1
6330 5660 5659 1
6331 5661 5660 1
6332 5662 5661 1
6333 5657 5659 1
6334 5656 5662 1
6335 5664 5663 1
6336 5665 5664 1
6337 5655 5665 2
6338 5662 5663 1
6339 5667 5666 1
6340 5668 5667 1
6341 5669 5668 1
6342 5661 5666 1
6343 5660 5669 1
6344 5671 5670 1
6345 5672 5671 1
6346 5658 5670 1
6347 5659 5672 1
6348 5674 5673 2
6349 5675 5674 1
6350 5676 5675 1
6351 5671 5673 1
6352 5670 5676 2
6353 5678 5677 1
6354 5679 5678 1
6355 5680 5679 2
6356 5674 5677 1
6357 5673 5680 1
6358 5682 5681 1
6359 5683 5682 1
6360 5684 5683 1
6361 5680 5681 1
6362 5679 5684 1
6363 5686 5685 1
6364 5672 5686 1
6365 5669 5685 1
6366 5688 5687 1
6367 5689 5688 1
6368 5685 5689 1
6369 5668 5687 1
6370 5691 5690 1
6371 5692 5691 1
6372 5693 5692 1
6373 5688 5690 1
6374 5687 5693 1
6375 5695 5694 1
6376 5696 5695 1
6377 5697 5696 1
6378 5692 5694 1
6379 5691 5697 1
6380 5699 5698 1
6381 5700 5699 1
6382 5701 5700 1
6383 5696 5698 1
6384 5695 5701 1
6385 5703 5702 1
6386 5667 5703 1
6387 5693 5702 1
6388 5705 5704 1
6389 5702 5705 1
6390 5694 5704 1
6391 5707 5706 1
6392 5704 5707 1
6393 5701 5706 1
6394 5709 5708 1
6395 5710 5709 1
6396 5706 5710 1
6397 5700 5708 1
6398 5712 5711 1
6399 5713 5712 1
6400 5714 5713 1
6401 5699 5711 1
6402 5698 5714 1
6403 5716 5715 1
6404 5717 5716 1
6405 5718 5717 1
6406 5713 5715 1
6407 5712 5718 1
6408 5720 5719 1
6409 5721 5720 1
6410 5722 5721 1
6411 5718 5719 1
6412 5717 5722 1
6413 5724 5723 1
6414 5725 5724 1
6415 5707 5725 1
6416 5705 5723 1
6417 5727 5726 1
6418 5728 5727 1
6419 5729 5728 1
6420 5724 5726 1
6421 5723 5729 1
6422 5731 5730 1
6423 5732 5731 1
6424 5733 5732 1
6425 5728 5730 1
6426 5727 5733 1
6427 5735 5734 1
6428 5725 5735 1
6429 5710 5734 1
6430 5737 5736 1
6431 5738 5737 1
6432 5734 5738 1
6433 5709 5736 1
6434 5740 5739 1
6435 5741 5740 1
6436 5708 5741 1
6437 5736 5739 1
6438 5743 5742 1
6439 5744 5743 1
6440 5737 5742 1
6441 5739 5744 1
6442 5746 5745 1
6443 5747 5746 1
6444 5740 5745 1
6445 5744 5747 1
6446 5749 5748 1
6447 5750 5749 1
6448 5751 5750 1
6449 5746 5748 1
6450 5745 5751 1
6451 5753 5752 1
6452 5754 5753 1
6453 5743 5754 1
6454 5747 5752 1
6455 5748 5755 1
6456 5752 5756 1
6457 5755 5756 1
6458 5682 5757 1
6459 5757 5758 1
6460 5757 5759 1
6461 5714 5760 1
6462 5762 5761 1
6463 5763 5762 1
6464 5764 5763 1
6465 5754 5761 1
6466 5753 5764 1
6467 5766 5765 1
6468 5767 5766 1
6469 5768 5767 1
6470 5764 5765 1
6471 5763 5768 1
6472 5770 5769 1
6473 5771 5770 1
6474 5772 5771 1
6475 5767 5769 1
6476 5766 5772 1
6477 5774 5773 1
6478 5775 5774 1
6479 5765 5775 1
6480 5772 5773 1
6481 5777 5776 1
6482 5778 5777 1
6483 5771 5778 1
6484 5773 5776 1
6485 5780 5779 1
6486 5774 5780 1
6487 5756 5775 1
6488 5755 5779 1
6489 5782 5781 1
6490 5780 5782 1
6491 5776 5781 1
6492 5784 5783 1
6493 5785 5784 1
6494 5786 5785 1
6495 5782 5783 1
6496 5781 5786 1
6497 5786 5787 2
6498 5641 5788 1
6499 5641 5789 1
6500 5642 5790 1
6501 5642 5791 1
6502 5643 5792 1
6503 5644 5793 1
6504 5645 5794 1
6505 5645 5795 1
6506 5647 5796 1
6507 5648 5797 1
6508 5649 5798 1
6509 5649 5799 1
6510 5650 5800 1
6511 5650 5801 1
6512 5652 5802 1
6513 5653 5803 1
6514 5654 5804 1
6515 5654 5805 1
6516 5658 5806 1
6517 5663 5807 1
6518 5663 5808 1
6519 5664 5809 1
6520 5664 5810 1
6521 5665 5811 1
6522 5675 5813 1
6523 5675 5814 1
6524 5676 5815 1
6525 5677 5816 1
6526 5677 5817 1
6527 5678 5818 1
6528 5678 5819 1
6529 5681 5820 1
6530 5681 5821 1
6531 5682 5822 1
6532 5683 5823 1
6533 5683 5824 1
6534 5684 5825 1
6535 5684 5826 1
6536 5686 5827 1
6537 5690 5828 1
6538 5697 5829 1
6539 5703 5830 1
6540 5712 5831 1
6541 5713 5832 1
6542 5714 5833 1
6543 5715 5834 1
6544 5715 5835 1
6545 5716 5836 1
6546 5716 5837 1
6547 5717 5838 1
6548 5718 5839 1
6549 5719 5840 1
6550 5719 5841 1
6551 5720 5842 1
6552 5720 5843 1
6553 5721 5844 1
6554 5721 5845 1
6555 5722 5846 1
6556 5727 5847 1
6557 5728 5848 1
6558 5730 5849 1
6559 5730 5850 1
6560 5731 5851 1
6561 5731 5852 1
6562 5732 5853 1
6563 5732 5854 1
6564 5733 5855 1
6565 5733 5856 1
6566 5735 5857 1
6567 5738 5858 1
6568 5741 5859 1
6569 5745 5860 1
6570 5746 5861 1
6571 5748 5862 1
6572 5749 5863 1
6573 5749 5864 1
6574 5750 5865 1
6575 5750 5866 1
6576 5751 5867 1
6577 5751 5868 1
6578 5757 5869 1
6579 5758 5870 1
6580 5758 5871 1
6581 5758 5872 1
6582 5759 5873 1
6583 5759 5874 1
6584 5759 5875 1
6585 5760 5876 1
6586 5761 5877 1
6587 5762 5878 1
6588 5768 5879 1
6589 5769 5880 1
6590 5770 5881 1
6591 5777 5882 1
6592 5778 5883 1
6593 5779 5884 1
6594 5783 5885 1
6595 5783 5886 1
6596 5784 5887 1
6597 5784 5888 1
6598 5785 5889 1
6599 5785 5890 1
6600 5671 5812 1
6601 5893 5892 1
6602 5894 5893 1
6603 5895 5894 1
6604 5896 5895 1
6605 5891 5892 1
6606 5891 5896 1
6607 5898 5897 1
6608 5899 5898 1
6609 5900 5899 1
6610 5894 5897 1
6611 5893 5900 1
6612 5902 5901 1
6613 5903 5902 1
6614 5904 5903 1
6615 5898 5901 1
6616 5897 5904 1
6617 5906 5905 1
6618 5907 5906 1
6619 5908 5907 1
6620 5903 5905 1
6621 5902 5908 1
6622 5910 5909 1
6623 5911 5910 1
6624 5912 5911 1
6625 5907 5909 1
6626 5906 5912 1
6627 5914 5913 1
6628 5915 5914 1
6629 5905 5915 2
6630 5912 5913 1
6631 5917 5916 1
6632 5918 5917 1
6633 5919 5918 1
6634 5911 5916 1
6635 5910 5919 1
6636 5921 5920 1
6637 5922 5921 1
6638 5908 5920 1
6639 5909 5922 1
6640 5924 5923 2
6641 5925 5924 1
6642 5926 5925 1
6643 5921 5923 1
6644 5920 5926 2
6645 5928 5927 1
6646 5929 5928 1
6647 5930 5929 2
6648 5924 5927 1
6649 5923 5930 1
6650 5932 5931 1
6651 5933 5932 1
6652 5934 5933 1
6653 5930 5931 1
6654 5929 5934 1
6655 5936 5935 1
6656 5922 5936 1
6657 5919 5935 1
6658 5938 5937 1
6659 5939 5938 1
6660 5935 5939 1
6661 5918 5937 1
6662 5941 5940 1
6663 5942 5941 1
6664 5943 5942 1
6665 5938 5940 1
6666 5937 5943 1
6667 5945 5944 1
6668 5946 5945 1
6669 5947 5946 1
6670 5942 5944 1
6671 5941 5947 1
6672 5949 5948 1
6673 5950 5949 1
6674 5951 5950 1
6675 5946 5948 1
6676 5945 5951 1
6677 5953 5952 1
6678 5917 5953 1
6679 5943 5952 1
6680 5955 5954 1
6681 5952 5955 1
6682 5944 5954 1
6683 5957 5956 1
6684 5954 5957 1
6685 5951 5956 1
6686 5959 5958 1
6687 5960 5959 1
6688 5956 5960 1
6689 5950 5958 1
6690 5962 5961 1
6691 5963 5962 1
6692 5964 5963 1
6693 5949 5961 1
6694 5948 5964 1
6695 5966 5965 1
6696 5967 5966 1
6697 5968 5967 1
6698 5963 5965 1
6699 5962 5968 1
6700 5970 5969 1
6701 5971 5970 1
6702 5972 5971 1
6703 5968 5969 1
6704 5967 5972 1
6705 5974 5973 1
6706 5975 5974 1
6707 5957 5975 1
6708 5955 5973 1
6709 5977 5976 1
6710 5978 5977 1
6711 5979 5978 1
6712 5974 5976 1
6713 5973 5979 1
6714 5981 5980 1
6715 5982 5981 1
6716 5983 5982 1
6717 5978 5980 1
6718 5977 5983 1
6719 5985 5984 1
6720 5975 5985 1
6721 5960 5984 1
6722 5987 5986 1
6723 5988 5987 1
6724 5984 5988 1
6725 5959 5986 1
6726 5990 5989 1
6727 5991 5990 1
6728 5958 5991 1
6729 5986 5989 1
6730 5993 5992 1
6731 5994 5993 1
6732 5987 5992 1
6733 5989 5994 1
6734 5996 5995 1
6735 5997 5996 1
6736 5990 5995 1
6737 5994 5997 1
6738 5999 5998 1
6739 6000 5999 1
6740 6001 6000 1
6741 5996 5998 1
6742 5995 6001 1
6743 6003 6002 1
6744 6004 6003 1
6745 5993 6004 1
6746 5997 6002 1
6747 5998 6005 1
6748 6002 6006 1
6749 6005 6006 1
6750 5932 6007 1
6751 6007 6008 1
6752 6007 6009 1
6753 5964 6010 1
6754 6012 6011 1
6755 6013 6012 1
6756 6014 6013 1
6757 6004 6011 1
6758 6003 6014 1
6759 6016 6015 1
6760 6017 6016 1
6761 6018 6017 1
6762 6014 6015 1
6763 6013 6018 1
6764 6020 6019 1
6765 6021 6020 1
6766 6022 6021 1
6767 6017 6019 1
6768 6016 6022 1
6769 6024 6023 1
6770 6025 6024 1
6771 6015 6025 1
6772 6022 6023 1
6773 6027 6026 1
6774 6028 6027 1
6775 6021 6028 1
6776 6023 6026 1
6777 6030 6029 1
6778 6024 6030 1
6779 6006 6025 1
6780 6005 6029 1
6781 6032 6031 1
6782 6030 6032 1
6783 6026 6031 1
6784 6034 6033 1
6785 6035 6034 1
6786 6036 6035 1
6787 6032 6033 1
6788 6031 6036 1
6789 6036 6037 2
6790 5891 6038 1
6791 5891 6039 1
6792 5892 6040 1
6793 5892 6041 1
6794 5893 6042 1
6795 5894 6043 1
6796 5895 6044 1
6797 5895 6045 1
6798 5897 6046 1
6799 5898 6047 1
6800 5899 6048 1
6801 5899 6049 1
6802 5900 6050 1
6803 5900 6051 1
6804 5902 6052 1
6805 5903 6053 1
6806 5904 6054 1
6807 5904 6055 1
6808 5908 6056 1
6809 5913 6057 1
6810 5913 6058 1
6811 5914 6059 1
6812 5914 6060 1
6813 5915 6061 1
6814 5925 6063 1
6815 5925 6064 1
6816 5926 6065 1
6817 5927 6066 1
6818 5927 6067 1
6819 5928 6068 1
6820 5928 6069 1
6821 5931 6070 1
6822 5931 6071 1
6823 5932 6072 1
6824 5933 6073 1
6825 5933 6074 1
6826 5934 6075 1
6827 5934 6076 1
6828 5936 6077 1
6829 5940 6078 1
6830 5947 6079 1
6831 5953 6080 1
6832 5962 6081 1
6833 5963 6082 1
6834 5964 6083 1
6835 5965 6084 1
6836 5965 6085 1
6837 5966 6086 1
6838 5966 6087 1
6839 5967 6088 1
6840 5968 6089 1
6841 5969 6090 1
6842 5969 6091 1
6843 5970 6092 1
6844 5970 6093 1
6845 5971 6094 1
6846 5971 6095 1
6847 5972 6096 1
6848 5977 6097 1
6849 5978 6098 1
6850 5980 6099 1
6851 5980 6100 1
6852 5981 6101 1
6853 5981 6102 1
6854 5982 6103 1
6855 5982 6104 1
6856 5983 6105 1
6857 5983 6106 1
6858 5985 6107 1
6859 5988 6108 1
6860 5991 6109 1
6861 5995 6110 1
6862 5996 6111 1
6863 5998 6112 1
6864 5999 6113 1
6865 5999 6114 1
6866 6000 6115 1
6867 6000 6116 1
6868 6001 6117 1
6869 6001 6118 1
6870 6007 6119 1
6871 6008 6120 1
6872 6008 6121 1
6873 6008 6122 1
6874 6009 6123 1
6875 6009 6124 1
6876 6009 6125 1
6877 6010 6126 1
6878 6011 6127 1
6879 6012 6128 1
6880 6018 6129 1
6881 6019 6130 1
6882 6020 6131 1
6883 6027 6132 1
6884 6028 6133 1
6885 6029 6134 1
6886 6033 6135 1
6887 6033 6136 1
6888 6034 6137 1
6889 6034 6138 1
6890 6035 6139 1
6891 6035 6140 1
6892 5921 6062 1
6893 6143 6142 1
6894 6144 6143 1
6895 6145 6144 1
6896 6146 6145 1
6897 6141 6142 1
6898 6141 6146 1
6899 6148 6147 1
6900 6149 6148 1
6901 6150 6149 1
6902 6144 6147 1
6903 6143 6150 1
6904 6152 6151 1
6905 6153 6152 1
6906 6154 6153 1
6907 6148 6151 1
6908 6147 6154 1
6909 6156 6155 1
6910 6157 6156 1
6911 6158 6157 1
6912 6153 6155 1
6913 6152 6158 1
6914 6160 6159 1
6915 6161 6160 1
6916 6162 6161 1
6917 6157 6159 1
6918 6156 6162 1
6919 6164 6163 1
6920 6165 6164 1
6921 6155 6165 2
6922 6162 6163 1
6923 6167 6166 1
6924 6168 6167 1
6925 6169 6168 1
6926 6161 6166 1
6927 6160 6169 1
6928 6171 6170 1
6929 6172 6171 1
6930 6158 6170 1
6931 6159 6172 1
6932 6174 6173 2
6933 6175 6174 1
6934 6176 6175 1
6935 6171 6173 1
6936 6170 6176 2
6937 6178 6177 1
6938 6179 6178 1
6939 6180 6179 2
6940 6174 6177 1
6941 6173 6180 1
6942 6182 6181 1
6943 6183 6182 1
6944 6184 6183 1
6945 6180 6181 1
6946 6179 6184 1
6947 6186 6185 1
6948 6172 6186 1
6949 6169 6185 1
6950 6188 6187 1
6951 6189 6188 1
6952 6185 6189 1
6953 6168 6187 1
6954 6191 6190 1
6955 6192 6191 1
6956 6193 6192 1
6957 6188 6190 1
6958 6187 6193 1
6959 6195 6194 1
6960 6196 6195 1
6961 6197 6196 1
6962 6192 6194 1
6963 6191 6197 1
6964 6199 6198 1
6965 6200 6199 1
6966 6201 6200 1
6967 6196 6198 1
6968 6195 6201 1
6969 6203 6202 1
6970 6167 6203 1
6971 6193 6202 1
6972 6205 6204 1
6973 6202 6205 1
6974 6194 6204 1
6975 6207 6206 1
6976 6204 6207 1
6977 6201 6206 1
6978 6209 6208 1
6979 6210 6209 1
6980 6206 6210 1
6981 6200 6208 1
6982 6212 6211 1
6983 6213 6212 1
6984 6214 6213 1
6985 6199 6211 1
6986 6198 6214 1
6987 6216 6215 1
6988 6217 6216 1
6989 6218 6217 1
6990 6213 6215 1
6991 6212 6218 1
6992 6220 6219 1
6993 6221 6220 1
6994 6222 6221 1
6995 6218 6219 1
6996 6217 6222 1
6997 6224 6223 1
6998 6225 6224 1
6999 6207 6225 1
7000 6205 6223 1
7001 6227 6226 1
7002 6228 6227 1
7003 6229 6228 1
7004 6224 6226 1
7005 6223 6229 1
7006 6231 6230 1
7007 6232 6231 1
7008 6233 6232 1
7009 6228 6230 1
7010 6227 6233 1
7011 6235 6234 1
7012 6225 6235 1
7013 6210 6234 1
7014 6237 6236 1
7015 6238 6237 1
7016 6234 6238 1
7017 6209 6236 1
7018 6240 6239 1
7019 6241 6240 1
7020 6208 6241 1
7021 6236 6239 1
7022 6243 6242 1
7023 6244 6243 1
7024 6237 6242 1
7025 6239 6244 1
7026 6246 6245 1
7027 6247 6246 1
7028 6240 6245 1
7029 6244 6247 1
7030 6249 6248 1
7031 6250 6249 1
7032 6251 6250 1
7033 6246 6248 1
7034 6245 6251 1
7035 6253 6252 1
7036 6254 6253 1
7037 6243 6254 1
7038 6247 6252 1
7039 6248 6255 1
7040 6252 6256 1
7041 6255 6256 1
7042 6182 6257 1
7043 6257 6258 1
7044 6257 6259 1
7045 6214 6260 1
7046 6262 6261 1
7047 6263 6262 1
7048 6264 6263 1
7049 6254 6261 1
7050 6253 6264 1
7051 6266 6265 1
7052 6267 6266 1
7053 6268 6267 1
7054 6264 6265 1
7055 6263 6268 1
7056 6270 6269 1
7057 6271 6270 1
7058 6272 6271 1
7059 6267 6269 1
7060 6266 6272 1
7061 6274 6273 1
7062 6275 6274 1
7063 6265 6275 1
7064 6272 6273 1
7065 6277 6276 1
7066 6278 6277 1
7067 6271 6278 1
7068 6273 6276 1
7069 6280 6279 1
7070 6274 6280 1
7071 6256 6275 1
7072 6255 6279 1
7073 6282 6281 1
7074 6280 6282 1
7075 6276 6281 1
7076 6284 6283 1
7077 6285 6284 1
7078 6286 6285 1
7079 6282 6283 1
7080 6281 6286 1
7081 6286 6287 2
7082 6141 6288 1
7083 6141 6289 1
7084 6142 6290 1
7085 6142 6291 1
7086 6143 6292 1
7087 6144 6293 1
7088 6145 6294 1
7089 6145 6295 1
7090 6147 6296 1
7091 6148 6297 1
7092 6149 6298 1
7093 6149 6299 1
7094 6150 6300 1
7095 6150 6301 1
7096 6152 6302 1
7097 6153 6303 1
7098 6154 6304 1
7099 6154 6305 1
7100 6158 6306 1
7101 6163 6307 1
7102 6163 6308 1
7103 6164 6309 1
7104 6164 6310 1
7105 6165 6311 1
7106 6175 6313 1
7107 6175 6314 1
7108 6176 6315 1
7109 6177 6316 1
7110 6177 6317 1
7111 6178 6318 1
7112 6178 6319 1
7113 6181 6320 1
7114 6181 6321 1
7115 6182 6322 1
7116 6183 6323 1
7117 6183 6324 1
7118 6184 6325 1
7119 6184 6326 1
7120 6186 6327 1
7121 6190 6328 1
7122 6197 6329 1
7123 6203 6330 1
7124 6212 6331 1
7125 6213 6332 1
7126 6214 6333 1
7127 6215 6334 1
7128 6215 6335 1
7129 6216 6336 1
7130 6216 6337 1
7131 6217 6338 1
7132 6218 6339 1
7133 6219 6340 1
7134 6219 6341 1
7135 6220 6342 1
7136 6220 6343 1
7137 6221 6344 1
7138 6221 6345 1
7139 6222 6346 1
7140 6227 6347 1
7141 6228 6348 1
7142 6230 6349 1
7143 6230 6350 1
7144 6231 6351 1
7145 6231 6352 1
7146 6232 6353 1
7147 6232 6354 1
7148 6233 6355 1
7149 6233 6356 1
7150 6235 6357 1
7151 6238 6358 1
7152 6241 6359 1
7153 6245 6360 1
7154 6246 6361 1
7155 6248 6362 1
7156 6249 6363 1
7157 6249 6364 1
7158 6250 6365 1
7159 6250 6366 1
7160 6251 6367 1
7161 6251 6368 1
7162 6257 6369 1
7163 6258 6370 1
7164 6258 6371 1
7165 6258 6372 1
7166 6259 6373 1
7167 6259 6374 1
7168 6259 6375 1
7169 6260 6376 1
7170 6261 6377 1
7171 6262 6378 1
7172 6268 6379 1
7173 6269 6380 1
7174 6270 6381 1
7175 6277 6382 1
7176 6278 6383 1
7177 6279 6384 1
7178 6283 6385 1
7179 6283 6386 1
7180 6284 6387 1
7181 6284 6388 1
7182 6285 6389 1
7183 6285 6390 1
7184 6171 6312 1
7185 6393 6392 1
7186 6394 6393 1
7187 6395 6394 1
7188 6396 6395 1
7189 6391 6392 1
7190 6391 6396 1
7191 6398 6397 1
7192 6399 6398 1
7193 6400 6399 1
7194 6394 6397 1
7195 6393 6400 1
7196 6402 6401 1
7197 6403 6402 1
7198 6404 6403 1
7199 6398 6401 1
7200 6397 6404 1
7201 6406 6405 1
7202 6407 6406 1
7203 6408 6407 1
7204 6403 6405 1
7205 6402 6408 1
7206 6410 6409 1
7207 6411 6410 1
7208 6412 6411 1
7209 6407 6409 1
7210 6406 6412 1
7211 6414 6413 1
7212 6415 6414 1
7213 6405 6415 2
7214 6412 6413 1
7215 6417 6416 1
7216 6418 6417 1
7217 6419 6418 1
7218 6411 6416 1
7219 6410 6419 1
7220 6421 6420 1
7221 6422 6421 1
7222 6408 6420 1
7223 6409 6422 1
7224 6424 6423 2
7225 6425 6424 1
7226 6426 6425 1
7227 6421 6423 1
7228 6420 6426 2
7229 6428 6427 1
7230 6429 6428 1
7231 6430 6429 2
7232 6424 6427 1
7233 6423 6430 1
7234 6432 6431 1
7235 6433 6432 1
7236 6434 6433 1
7237 6430 6431 1
7238 6429 6434 1
7239 6436 6435 1
7240 6422 6436 1
7241 6419 6435 1
7242 6438 6437 1
7243 6439 6438 1
7244 6435 6439 1
7245 6418 6437 1
7246 6441 6440 1
7247 6442 6441 1
7248 6443 6442 1
7249 6438 6440 1
7250 6437 6443 1
7251 6445 6444 1
7252 6446 6445 1
7253 6447 6446 1
7254 6442 6444 1
7255 6441 6447 1
7256 6449 6448 1
7257 6450 6449 1
7258 6451 6450 1
7259 6446 6448 1
7260 6445 6451 1
7261 6453 6452 1
7262 6417 6453 1
7263 6443 6452 1
7264 6455 6454 1
7265 6452 6455 1
7266 6444 6454 1
7267 6457 6456 1
7268 6454 6457 1
7269 6451 6456 1
7270 6459 6458 1
7271 6460 6459 1
7272 6456 6460 1
7273 6450 6458 1
7274 6462 6461 1
7275 6463 6462 1
7276 6464 6463 1
7277 6449 6461 1
7278 6448 6464 1
7279 6466 6465 1
7280 6467 6466 1
7281 6468 6467 1
7282 6463 6465 1
7283 6462 6468 1
7284 6470 6469 1
7285 6471 6470 1
7286 6472 6471 1
7287 6468 6469 1
7288 6467 6472 1
7289 6474 6473 1
7290 6475 6474 1
7291 6457 6475 1
7292 6455 6473 1
7293 6477 6476 1
7294 6478 6477 1
7295 6479 6478 1
7296 6474 6476 1
7297 6473 6479 1
7298 6481 6480 1
7299 6482 6481 1
7300 6483 6482 1
7301 6478 6480 1
7302 6477 6483 1
7303 6485 6484 1
7304 6475 6485 1
7305 6460 6484 1
7306 6487 6486 1
7307 6488 6487 1
7308 6484 6488 1
7309 6459 6486 1
7310 6490 6489 1
7311 6491 6490 1
7312 6458 6491 1
7313 6486 6489 1
7314 6493 6492 1
7315 6494 6493 1
7316 6487 6492 1
7317 6489 6494 1
7318 6496 6495 1
7319 6497 6496 1
7320 6490 6495 1
7321 6494 6497 1
7322 6499 6498 1
7323 6500 6499 1
7324 6501 6500 1
7325 6496 6498 1
7326 6495 6501 1
7327 6503 6502 1
7328 6504 6503 1
7329 6493 6504 1
7330 6497 6502 1
7331 6498 6505 1
7332 6502 6506 1
7333 6505 6506 1
7334 6432 6507 1
7335 6507 6508 1
7336 6507 6509 1
7337 6464 6510 1
7338 6512 6511 1
7339 6513 6512 1
7340 6514 6513 1
7341 6504 6511 1
7342 6503 6514 1
7343 6516 6515 1
7344 6517 6516 1
7345 6518 6517 1
7346 6514 6515 1
7347 6513 6518 1
7348 6520 6519 1
7349 6521 6520 1
7350 6522 6521 1
7351 6517 6519 1
7352 6516 6522 1
7353 6524 6523 1
7354 6525 6524 1
7355 6515 6525 1
7356 6522 6523 1
7357 6527 6526 1
7358 6528 6527 1
7359 6521 6528 1
7360 6523 6526 1
7361 6530 6529 1
7362 6524 6530 1
7363 6506 6525 1
7364 6505 6529 1
7365 6532 6531 1
7366 6530 6532 1
7367 6526 6531 1
7368 6534 6533 1
7369 6535 6534 1
7370 6536 6535 1
7371 6532 6533 1
7372 6531 6536 1
7373 6536 6537 2
7374 6391 6538 1
7375 6391 6539 1
7376 6392 6540 1
7377 6392 6541 1
7378 6393 6542 1
7379 6394 6543 1
7380 6395 6544 1
7381 6395 6545 1
7382 6397 6546 1
7383 6398 6547 1
7384 6399 6548 1
7385 6399 6549 1
7386 6400 6550 1
7387 6400 6551 1
7388 6402 6552 1
7389 6403 6553 1
7390 6404 6554 1
7391 6404 6555 1
7392 6408 6556 1
7393 6413 6557 1
7394 6413 6558 1
7395 6414 6559 1
7396 6414 6560 1
7397 6415 6561 1
7398 6425 6563 1
7399 6425 6564 1
7400 6426 6565 1
7401 6427 6566 1
7402 6427 6567 1
7403 6428 6568 1
7404 6428 6569 1
7405 6431 6570 1
7406 6431 6571 1
7407 6432 6572 1
7408 6433 6573 1
7409 6433 6574 1
7410 6434 6575 1
7411 6434 6576 1
7412 6436 6577 1
7413 6440 6578 1
7414 6447 6579 1
7415 6453 6580 1
7416 6462 6581 1
7417 6463 6582 1
7418 6464 6583 1
7419 6465 6584 1
7420 6465 6585 1
7421 6466 6586 1
7422 6466 6587 1
7423 6467 6588 1
7424 6468 6589 1
7425 6469 6590 1
7426 6469 6591 1
7427 6470 6592 1
7428 6470 6593 1
7429 6471 6594 1
7430 6471 6595 1
7431 6472 6596 1
7432 6477 6597 1
7433 6478 6598 1
7434 6480 6599 1
7435 6480 6600 1
7436 6481 6601 1
7437 6481 6602 1
7438 6482 6603 1
7439 6482 6604 1
7440 6483 6605 1
7441 6483 6606 1
7442 6485 6607 1
7443 6488 6608 1
7444 6491 6609 1
7445 6495 6610 1
7446 6496 6611 1
7447 6498 6612 1
7448 6499 6613 1
7449 6499 6614 1
7450 6500 6615 1
7451 6500 6616 1
7452 6501 6617 1
7453 6501 6618 1
7454 6507 6619 1
7455 6508 6620 1
7456 6508 6621 1
7457 6508 6622 1
7458 6509 6623 1
7459 6509 6624 1
7460 6509 6625 1
7461 6510 6626 1
7462 6511 6627 1
7463 6512 6628 1
7464 6518 6629 1
7465 6519 6630 1
7466 6520 6631 1
7467 6527 6632 1
7468 6528 6633 1
7469 6529 6634 1
7470 6533 6635 1
7471 6533 6636 1
7472 6534 6637 1
7473 6534 6638 1
7474 6535 6639 1
7475 6535 6640 1
7476 6421 6562 1
7477 6643 6642 1
7478 6644 6643 1
7479 6645 6644 1
7480 6646 6645 1
7481 6641 6642 1
7482 6641 6646 1
7483 6648 6647 1
7484 6649 6648 1
7485 6650 6649 1
7486 6644 6647 1
7487 6643 6650 1
7488 6652 6651 1
7489 6653 6652 1
7490 6654 6653 1
7491 6648 6651 1
7492 6647 6654 1
7493 6656 6655 1
7494 6657 6656 1
7495 6658 6657 1
7496 6653 6655 1
7497 6652 6658 1
7498 6660 6659 1
7499 6661 6660 1
7500 6662 6661 1
7501 6657 6659 1
7502 6656 6662 1
7503 6664 6663 1
7504 6665 6664 1
7505 6655 6665 2
7506 6662 6663 1
7507 6667 6666 1
7508 6668 6667 1
7509 6669 6668 1
7510 6661 6666 1
7511 6660 6669 1
7512 6671 6670 1
7513 6672 6671 1
7514 6658 6670 1
7515 6659 6672 1
7516 6674 6673 2
7517 6675 6674 1
7518 6676 6675 1
7519 6671 6673 1
7520 6670 6676 2
7521 6678 6677 1
7522 6679 6678 1
7523 6680 6679 2
7524 6674 6677 1
7525 6673 6680 1
7526 6682 6681 1
7527 6683 6682 1
7528 6684 6683 1
7529 6680 6681 1
7530 6679 6684 1
7531 6686 6685 1
7532 6672 6686 1
7533 6669 6685 1
7534 6688 6687 1
7535 6689 6688 1
7536 6685 6689 1
7537 6668 6687 1
7538 6691 6690 1
7539 6692 6691 1
7540 6693 6692 1
7541 6688 6690 1
7542 6687 6693 1
7543 6695 6694 1
7544 6696 6695 1
7545 6697 6696 1
7546 6692 6694 1
7547 6691 6697 1
7548 6699 6698 1
7549 6700 6699 1
7550 6701 6700 1
7551 6696 6698 1
7552 6695 6701 1
7553 6703 6702 1
7554 6667 6703 1
7555 6693 6702 1
7556 6705 6704 1
7557 6702 6705 1
7558 6694 6704 1
7559 6707 6706 1
7560 6704 6707 1
7561 6701 6706 1
7562 6709 6708 1
7563 6710 6709 1
7564 6706 6710 1
7565 6700 6708 1
7566 6712 6711 1
7567 6713 6712 1
7568 6714 6713 1
7569 6699 6711 1
7570 6698 6714 1
7571 6716 6715 1
7572 6717 6716 1
7573 6718 6717 1
7574 6713 6715 1
7575 6712 6718 1
7576 6720 6719 1
7577 6721 6720 1
7578 6722 6721 1
7579 6718 6719 1
7580 6717 6722 1
7581 6724 6723 1
7582 6725 6724 1
7583 6707 6725 1
7584 6705 6723 1
7585 6727 6726 1
7586 6728 6727 1
7587 6729 6728 1
7588 6724 6726 1
7589 6723 6729 1
7590 6731 6730 1
7591 6732 6731 1
7592 6733 6732 1
7593 6728 6730 1
7594 6727 6733 1
7595 6735 6734 1
7596 6725 6735 1
7597 6710 6734 1
7598 6737 6736 1
7599 6738 6737 1
7600 6734 6738 1
7601 6709 6736 1
7602 6740 6739 1
7603 6741 6740 1
7604 6708 6741 1
7605 6736 6739 1
7606 6743 6742 1
7607 6744 6743 1
7608 6737 6742 1
7609 6739 6744 1
7610 6746 6745 1
7611 6747 6746 1
7612 6740 6745 1
7613 6744 6747 1
7614 6749 6748 1
7615 6750 6749 1
7616 6751 6750 1
7617 6746 6748 1
7618 6745 6751 1
7619 6753 6752 1
7620 6754 6753 1
7621 6743 6754 1
7622 6747 6752 1
7623 6748 6755 1
7624 6752 6756 1
7625 6755 6756 1
7626 6682 6757 1
7627 6757 6758 1
7628 6757 6759 1
7629 6714 6760 1
7630 6762 6761 1
7631 6763 6762 1
7632 6764 6763 1
7633 6754 6761 1
7634 6753 6764 1
7635 6766 6765 1
7636 6767 6766 1
7637 6768 6767 1
7638 6764 6765 1
7639 6763 6768 1
7640 6770 6769 1
7641 6771 6770 1
7642 6772 6771 1
7643 6767 6769 1
7644 6766 6772 1
7645 6774 6773 1
7646 6775 6774 1
7647 6765 6775 1
7648 6772 6773 1
7649 6777 6776 1
7650 6778 6777 1
7651 6771 6778 1
7652 6773 6776 1
7653 6780 6779 1
7654 6774 6780 1
7655 6756 6775 1
7656 6755 6779 1
7657 6782 6781 1
7658 6780 6782 1
7659 6776 6781 1
7660 6784 6783 1
7661 6785 6784 1
7662 6786 6785 1
7663 6782 6783 1
7664 6781 6786 1
7665 6786 6787 2
7666 6641 6788 1
7667 6641 6789 1
7668 6642 6790 1
7669 6642 6791 1
7670 6643 6792 1
7671 6644 6793 1
7672 6645 6794 1
7673 6645 6795 1
7674 6647 6796 1
7675 6648 6797 1
7676 6649 6798 1
7677 6649 6799 1
7678 6650 6800 1
7679 6650 6801 1
7680 6652 6802 1
7681 6653 6803 1
7682 6654 6804 1
7683 6654 6805 1
7684 6658 6806 1
7685 6663 6807 1
7686 6663 6808 1
7687 6664 6809 1
7688 6664 6810 1
7689 6665 6811 1
7690 6675 6813 1
7691 6675 6814 1
7692 6676 6815 1
7693 6677 6816 1
7694 6677 6817 1
7695 6678 6818 1
7696 6678 6819 1
7697 6681 6820 1
7698 6681 6821 1
7699 6682 6822 1
7700 6683 6823 1
7701 6683 6824 1
7702 6684 6825 1
7703 6684 6826 1
7704 6686 6827 1
7705 6690 6828 1
7706 6697 6829 1
7707 6703 6830 1
7708 6712 6831 1
7709 6713 6832 1
7710 6714 6833 1
7711 6715 6834 1
7712 6715 6835 1
7713 6716 6836 1
7714 6716 6837 1
7715 6717 6838 1
7716 6718 6839 1
7717 6719 6840 1
7718 6719 6841 1
7719 6720 6842 1
7720 6720 6843 1
7721 6721 6844 1
7722 6721 6845 1
7723 6722 6846 1
7724 6727 6847 1
7725 6728 6848 1
7726 6730 6849 1
7727 6730 6850 1
7728 6731 6851 1
7729 6731 6852 1
7730 6732 6853 1
7731 6732 6854 1
7732 6733 6855 1
7733 6733 6856 1
7734 6735 6857 1
7735 6738 6858 1
7736 6741 6859 1
7737 6745 6860 1
7738 6746 6861 1
7739 6748 6862 1
7740 6749 6863 1
7741 6749 6864 1
7742 6750 6865 1
7743 6750 6866 1
7744 6751 6867 1
7745 6751 6868 1
7746 6757 6869 1
7747 6758 6870 1
7748 6758 6871 1
7749 6758 6872 1
7750 6759 6873 1
7751 6759 6874 1
7752 6759 6875 1
7753 6760 6876 1
7754 6761 6877 1
7755 6762 6878 1
7756 6768 6879 1
7757 6769 6880 1
7758 6770 6881 1
7759 6777 6882 1
7760 6778 6883 1
7761 6779 6884 1
7762 6783 6885 1
7763 6783 6886 1
7764 6784 6887 1
7765 6784 6888 1
7766 6785 6889 1
7767 6785 6890 1
7768 6671 6812 1
7769 6893 6892 1
7770 6894 6893 1
7771 6895 6894 1
7772 6896 6895 1
7773 6891 6892 1
7774 6891 6896 1
7775 6898 6897 1
7776 6899 6898 1
7777 6900 6899 1
7778 6894 6897 1
7779 6893 6900 1
7780 6902 6901 1
7781 6903 6902 1
7782 6904 6903 1
7783 6898 6901 1
7784 6897 6904 1
7785 6906 6905 1
7786 6907 6906 1
7787 6908 6907 1
7788 6903 6905 1
7789 6902 6908 1
7790 6910 6909 1
7791 6911 6910 1
7792 6912 6911 1
7793 6907 6909 1
7794 6906 6912 1
7795 6914 6913 1
7796 6915 6914 1
7797 6905 6915 2
7798 6912 6913 1
7799 6917 6916 1
7800 6918 6917 1
7801 6919 6918 1
7802 6911 6916 1
7803 6910 6919 1
7804 6921 6920 1
7805 6922 6921 1
7806 6908 6920 1
7807 6909 6922 1
7808 6924 6923 2
7809 6925 6924 1
7810 6926 6925 1
7811 6921 6923 1
7812 6920 6926 2
7813 6928 6927 1
7814 6929 6928 1
7815 6930 6929 2
7816 6924 6927 1
7817 6923 6930 1
7818 6932 6931 1
7819 6933 6932 1
7820 6934 6933 1
7821 6930 6931 1
7822 6929 6934 1
7823 6936 6935 1
7824 6922 6936 1
7825 6919 6935 1
7826 6938 6937 1
7827 6939 6938 1
7828 6935 6939 1
7829 6918 6937 1
7830 6941 6940 1
7831 6942 6941 1
7832 6943 6942 1
7833 6938 6940 1
7834 6937 6943 1
7835 6945 6944 1
7836 6946 6945 1
7837 6947 6946 1
7838 6942 6944 1
7839 6941 6947 1
7840 6949 6948 1
7841 6950 6949 1
7842 6951 6950 1
7843 6946 6948 1
7844 6945 6951 1
7845 6953 6952 1
7846 6917 6953 1
7847 6943 6952 1
7848 6955 6954 1
7849 6952 6955 1
7850 6944 6954 1
7851 6957 6956 1
7852 6954 6957 1
7853 6951 6956 1
7854 6959 6958 1
7855 6960 6959 1
7856 6956 6960 1
7857 6950 6958 1
7858 6962 6961 1
7859 6963 6962 1
7860 6964 6963 1
7861 6949 6961 1
7862 6948 6964 1
7863 6966 6965 1
7864 6967 6966 1
7865 6968 6967 1
7866 6963 6965 1
7867 6962 6968 1
7868 6970 6969 1
7869 6971 6970 1
7870 6972 6971 1
7871 6968 6969 1
7872 6967 6972 1
7873 6974 6973 1
7874 6975 6974 1
7875 6957 6975 1
7876 6955 6973 1
7877 6977 6976 1
7878 6978 6977 1
7879 6979 6978 1
7880 6974 6976 1
7881 6973 6979 1
7882 6981 6980 1
7883 6982 6981 1
7884 6983 6982 1
7885 6978 6980 1
7886 6977 6983 1
7887 6985 6984 1
7888 6975 6985 1
7889 6960 6984 1
7890 6987 6986 1
7891 6988 6987 1
7892 6984 6988 1
7893 6959 6986 1
7894 6990 6989 1
7895 6991 6990 1
7896 6958 6991 1
7897 6986 6989 1
7898 6993 6992 1
7899 6994 6993 1
7900 6987 6992 1
7901 6989 6994 1
7902 6996 6995 1
7903 6997 6996 1
7904 6990 6995 1
7905 6994 6997 1
7906 6999 6998 1
7907 7000 6999 1
7908 7001 7000 1
7909 6996 6998 1
7910 6995 7001 1
7911 7003 7002 1
7912 7004 7003 1
7913 6993 7004 1
7914 6997 7002 1
7915 6998 7005 1
7916 7002 7006 1
7917 7005 7006 1
7918 6932 7007 1
7919 7007 7008 1
7920 7007 7009 1
7921 6964 7010 1
7922 7012 7011 1
7923 7013 7012 1
7924 7014 7013 1
7925 7004 7011 1
7926 7003 7014 1
7927 7016 7015 1
7928 7017 7016 1
7929 7018 7017 1
7930 7014 7015 1
7931 7013 7018 1
7932 7020 7019 1
7933 7021 7020 1
7934 7022 7021 1
7935 7017 7019 1
7936 7016 7022 1
7937 7024 7023 1
7938 7025 7024 1
7939 7015 7025 1
7940 7022 7023 1
7941 7027 7026 1
7942 7028 7027 1
7943 7021 7028 1
7944 7023 7026 1
7945 7030 7029 1
7946 7024 7030 1
7947 7006 7025 1
7948 7005 7029 1
7949 7032 7031 1
7950 7030 7032 1
7951 7026 7031 1
7952 7034 7033 1
7953 7035 7034 1
7954 7036 7035 1
7955 7032 7033 1
7956 7031 7036 1
7957 7036 7037 2
7958 6891 7038 1
7959 6891 7039 1
7960 6892 7040 1
7961 6892 7041 1
7962 6893 7042 1
7963 6894 7043 1
7964 6895 7044 1
7965 6895 7045 1
7966 6897 7046 1
7967 6898 7047 1
7968 6899 7048 1
7969 6899 7049 1
7970 6900 7050 1
7971 6900 7051 1
7972 6902 7052 1
7973 6903 7053 1
7974 6904 7054 1
7975 6904 7055 1
7976 6908 7056 1
7977 6913 7057 1
7978 6913 7058 1
7979 6914 7059 1
7980 6914 7060 1
7981 6915 7061 1
7982 6925 7063 1
7983 6925 7064 1
7984 6926 7065 1
7985 6927 7066 1
7986 6927 7067 1
7987 6928 7068 1
7988 6928 7069 1
7989 6931 7070 1
7990 6931 7071 1
7991 6932 7072 1
7992 6933 7073 1
7993 6933 7074 1
7994 6934 7075 1
7995 6934 7076 1
7996 6936 7077 1
7997 6940 7078 1
7998 6947 7079 1
7999 6953 7080 1
8000 6962 7081 1
8001 6963 7082 1
8002 6964 7083 1
8003 6965 7084 1
8004 6965 7085 1
8005 6966 7086 1
8006 6966 7087 1
8007 6967 7088 1
8008 6968 7089 1
8009 6969 7090 1
8010 6969 7091 1
8011 6970 7092 1
8012 6970 7093 1
8013 6971 7094 1
8014 6971 7095 1
8015 6972 7096 1
8016 6977 7097 1
8017 6978 7098 1
8018 6980 7099 1
8019 6980 7100 1
8020 6981 7101 1
8021 6981 7102 1
8022 6982 7103 1
8023 6982 7104 1
8024 6983 7105 1
8025 6983 7106 1
8026 6985 7107 1
8027 6988 7108 1
8028 6991 7109 1
8029 6995 7110 1
8030 6996 7111 1
8031 6998 7112 1
8032 6999 7113 1
8033 6999 7114 1
8034 7000 7115 1
8035 7000 7116 1
8036 7001 7117 1
8037 7001 7118 1
8038 7007 7119 1
8039 7008 7120 1
8040 7008 7121 1
8041 7008 7122 1
8042 7009 7123 1
8043 7009 7124 1
8044 7009 7125 1
8045 7010 7126 1
8046 7011 7127 1
8047 7012 7128 1
8048 7018 7129 1
8049 7019 7130 1
8050 7020 7131 1
8051 7027 7132 1
8052 7028 7133 1
8053 7029 7134 1
8054 7033 7135 1
8055 7033 7136 1
8056 7034 7137 1
8057 7034 7138 1
8058 7035 7139 1
8059 7035 7140 1
8060 6921 7062 1
@<TRIPOS>CRYSIN
95.9376 95.9376 95.9376 90 90 90 1 1
